 ****** HSPICE -- A-2008.03 32-BIT (Feb 26 2008) winnt ******                   
  Copyright (C) 2008 Synopsys, Inc. All Rights Reserved.                        
  Unpublished-rights reserved under US copyright laws.
  This program is protected by law and is subject to the 
  terms and conditions of the license agreement found in:
    C:\synopsys\Hspice_A-2008.03\license.warn
  Use of this program is your acceptance to be bound by this 
  license agreement. HSPICE is the trademark of Synopsys, Inc.
  Input File: j:\books\ma courses\cmos integrated circuit\project\0.cmos project
 Init: read install configuration file: C:\synopsys\Hspice_A-2008.03\meta.cfg
 Init: hspice initialization file: C:\synopsys\Hspice_A-2008.03\hspice.ini




 .op
 .lib mc018.l tt

 .param
 +toxn             = 4.08e-09     cjn              = 0.001000266  cjswn            = 2.040547e-10
 +cjswgn           = 3.340547e-10 cgon             = 3.665e-10    dvthn            = 0           
 +hdifn            = 2e-07        dvsatn		  = 0            dwvthn		  = 0
 +rshn             = 6.8  	 				 dpvthn		  = 0
 +toxp             = 4.08e-09     cjp              = 0.001121     cjswp            = 2.481e-10   
 +cjswgp           = 4.221e-10    cgop             = 3.28e-10     dvthp            = 0           
 +hdifp            = 2e-07        dxl              = 0            dxw              = 0           
 +rshp             = 7.2      
 .lib 'mc018.l' mos

 ***************************************************************
 *                                                             *
 *               1.8v  nmos devices model                      *
 *                                                             *
 ***************************************************************
 *******************************************************************************************
 *                                                                                         *
 *                              1.8v core device models                                    *
 *                                                                                         *
 *******************************************************************************************

 .model nch.1 nmos	(	lmin     = '1.000e-05-dxl'         lmax     = 20.001e-006              
 +wmin     = '1.0000e-05-dxw'                                   wmax     = 900.001e-6               
 +level    = 49                  tnom     = 25.0                version  = 3.24                 
 +tox      = 'toxn*gas'             toxm     = 'toxn'              xj       = 1.6000000e-07       
 +nch      = 3.9000000e17        lln      = -1                  lwn      = 1.0000000           
 +wln      = 1.0000000           wwn      = 1                   lint     = 1.0000000e-08       
 +ll       = 0.00                lw       = 0.00                lwl      = 0.00                
 +wint     = 3.0000000e-09       wl       = 0.00                ww       = 0.00                
 +wwl      = 0.00                mobmod   = 1                   binunit  = 2                   
 +xl       = '-0.02e-6+dxl'      xw       = '0.0+dxw'           dwg      = 0.00                
 +dwb      = 0.00                acm      = 12                  ldif     = 9.00e-08            
 +hdif     = 'hdifn'             rsh      = 'rshn'              rd       = 0                   
 +rs       = 0                                      
 +vth0     = '(0.4365561+dvthn)*gas'   wvth0     = '0+dwvthn'	       pvth0    = '0+dpvthn'
 +k1       = 0.5142301           k2       = 1.4797844e-02       
 +k3       = 0.00                dvt0     = 0.00                dvt1     = 0.00                
 +dvt2     = 0.00                dvt0w    = 0.00                dvt1w    = 0.00                
 +dvt2w    = 0.00                nlx      = 0.00                w0       = 0.00                
 +k3b      = 0.00                vsat     = '9.0000010e04+dvsatn'        
 +ua       = -6.1227400e-10      ub       = 2.3135539e-18       uc       = 1.0876087e-10       
 +rdsw     = 1.7000000e02        prwb     = 0.00                prwg     = 0.00                
 +wr       = 1.0000000           u0       = 4.2203390e-02       a0       = 0.3700794           
 +keta     = 9.2634850e-03       a1       = 0.00                a2       = 0.9900000           
 +ags      = 2.0000000e-02       b0       = 0.00                b1       = 0.00                
 +voff     = -0.1405780          nfactor  = 1.0000000           cit      = -1.0000001e-04      
 +cdsc     = 0.00                cdscb    = 0.00                cdscd    = 0.00                
 +eta0     = 5.0000000e-05       etab     = -5.0000000e-05      dsub     = 0.00                
 +pclm     = 0.8000001           pdiblc1  = 1.0000000e-06       pdiblc2  = 6.9999990e-04       
 +pdiblcb  = 1.0000000e-02       drout    = 0.00                pscbe1   = 2.0000003e08        
 +pscbe2   = 1.0000000e-06       pvag     = 0.00                delta    = 1.0000000e-02       
 +alpha0   = 0.0                 alpha1   = 0.448150714         beta0    = 11.59263            
 +kt1      = -0.2240464          kt2      = -3.0266136e-02      at       = 2.0000000e04        
 +ute      = -1.5799998          ua1      = 1.2240000e-09       ub1      = -1.1209314e-18      
 +uc1      = 1.1643822e-11       kt1l     = 0.00                prt      = 0                   
 +cj       = cjn                 pb       = 0.6882682           mj       = 0.3595262
 +cjsw     = cjswn               pbsw     = 0.6882682           mjsw     = 0.2003879
 +cjswg    = cjswgn              pbswg    = 0.6882682           mjswg    = 0.43879
 +cgdo     = cgon                cgso     = cgon                tcj      = 0.001040287
 +tcjsw    = 0.000645489         tcjswg   = 0.000645489         tpb      = 0.001554306
 +tpbsw    = 0.001554306         tpbswg   = 0.001554306
 +js       = 3.50e-07            jsw      = 1.45e-12             n        = 1
 +xti      = 3                   capmod   = 3                   nqsmod   = 0
 +xpart    = 1                   cf       = 0                   tlev     = 1
 +tlevc    = 1                   calcacm  = 1                   sfvtflag = 0
 +dlc      = 3e-9                llc      = -0.039              noimod  = 2
 +noia     = 2.00e19		noib     = 1.2e04	       noic	= 2.5e-13
 +em       = 3.0e07		ef       = 0.874               )

 .model nch.2 nmos	(	lmin     = '1.200e-06-dxl'         lmax     = '1.000e-05-dxl'         
 +wmin     = '1.0000e-05-dxw'                                   wmax     = 900.001e-6               
 +level    = 49                  tnom     = 25.0                version  = 3.24                 
 +tox      = 'toxn*gas'             toxm     = 'toxn'              xj       = 1.6000000e-07       
 +nch      = 3.9000000e17        lln      = -1                  lwn      = 1.0000000           
 +wln      = 1.0000000           wwn      = 1                   lint     = 1.0000000e-08       
 +ll       = 0.00                lw       = 0.00                lwl      = 0.00                
 +wint     = 3.0000000e-09       wl       = 0.00                ww       = 0.00                
 +wwl      = 0.00                mobmod   = 1                   binunit  = 2                   
 +xl       = '-0.02e-6+dxl'      xw       = '0.0+dxw'           dwg      = 0.00                
 +dwb      = 0.00                acm      = 12                  ldif     = 9.00e-08            
 +hdif     = 'hdifn'             rsh      = 'rshn'              rd       = 0                   
 +rs       = 0                                     
 +vth0     = '(0.4304705+dvthn)*gas'   lvth0    = 6.0612860e-08       wvth0     = '0+dwvthn'
 +pvth0    = '0+dpvthn'
 +k1       = 0.5127332           
 +lk1      = 1.4908842e-08       k2       = 1.5913645e-02       lk2      = -1.1113380e-08      
 +k3       = 0.00                dvt0     = 0.00                dvt1     = 0.00                
 +dvt2     = 0.00                dvt0w    = 0.00                dvt1w    = 0.00                
 +dvt2w    = 0.00                nlx      = 0.00                w0       = 0.00                
 +k3b      = 0.00                vsat     = '9.0658910e04+dvsatn'        
 +lvsat    = -6.5626380e-03      ua       = -5.6565540e-10      lua      = -4.6432150e-16      
 +ub       = 2.2395009e-18       lub      = 7.3756760e-25       uc       = 1.0484686e-10       
 +luc      = 3.8983540e-17       rdsw     = 1.7000000e02        prwb     = 0.00                
 +prwg     = 0.00                wr       = 1.0000000           u0       = 4.1872890e-02       
 +lu0      = 3.2918090e-09       a0       = 0.4051807           la0      = -3.4960930e-07      
 +keta     = 1.3601615e-02       lketa    = -4.3207800e-08      a1       = 0.00                
 +a2       = 0.9900000           ags      = 2.0000000e-02       b0       = 0.00                
 +b1       = 0.00                voff     = -0.1395267          lvoff    = -1.0471327e-08      
 +nfactor  = 1.0000000           cit      = -1.2675909e-04      lcit     = 2.6652050e-10       
 +cdsc     = 0.00                cdscb    = 0.00                cdscd    = 0.00                
 +eta0     = 5.0000000e-05       etab     = -5.0000000e-05      dsub     = 0.00                
 +pclm     = 0.7736172           lpclm    = 2.6277317e-07       pdiblc1  = 1.0000000e-06       
 +pdiblc2  = 3.9681830e-04       lpdiblc2 = 3.0196909e-09       pdiblcb  = 1.0000000e-02       
 +drout    = 0.00                pscbe1   = 1.7363640e08        lpscbe1  = 2.6258182e+02        
 +pscbe2   = 1.0000000e-06       pvag     = 0.00                delta    = 1.0000000e-02       
 +alpha0   = 0.0                 alpha1   = 0.448150714         beta0    = 11.59263            
 +kt1      = -0.2240468          kt2      = -3.0265680e-02      lkt2     = -4.5534910e-12      
 +at       = 2.0000000e04        ute      = -1.5799941          lute     = -5.7439520e-11      
 +ua1      = 1.2240000e-09       ub1      = -1.1209769e-18      lub1     = 4.5273160e-28       
 +uc1      = 1.1635963e-11       luc1     = 7.8277720e-20       kt1l     = 0.00                
 +prt      = 0                                   
 +cj       = cjn                 pb       = 0.6882682           mj       = 0.3595262
 +cjsw     = cjswn               pbsw     = 0.6882682           mjsw     = 0.2003879
 +cjswg    = cjswgn              pbswg    = 0.6882682           mjswg    = 0.43879
 +cgdo     = cgon                cgso     = cgon                tcj      = 0.001040287
 +tcjsw    = 0.000645489         tcjswg   = 0.000645489         tpb      = 0.001554306
 +tpbsw    = 0.001554306         tpbswg   = 0.001554306
 +js       = 3.50e-07            jsw      = 1.45e-12             n        = 1
 +xti      = 3                   capmod   = 3                   nqsmod   = 0
 +xpart    = 1                   cf       = 0                   tlev     = 1
 +tlevc    = 1                   calcacm  = 1                   sfvtflag = 0
 +dlc      = 3e-9                llc      = -0.039              noimod  = 2
 +noia     = 2.00e19		noib     = 1.2e04	       noic	= 2.5e-13
 +em       = 3.0e07		ef       = 0.874               )

 .model nch.3 nmos	(	lmin     = '5.000e-07-dxl'         lmax     = '1.200e-06-dxl'         
 +wmin     = '1.0000e-05-dxw'                                   wmax     = 900.001e-6               
 +level    = 49                  tnom     = 25.0                version  = 3.24                 
 +tox      = 'toxn*gas'             toxm     = 'toxn'              xj       = 1.6000000e-07       
 +nch      = 3.9000000e17        lln      = -1                  lwn      = 1.0000000           
 +wln      = 1.0000000           wwn      = 1                   lint     = 1.0000000e-08       
 +ll       = 0.00                lw       = 0.00                lwl      = 0.00                
 +wint     = 3.0000000e-09       wl       = 0.00                ww       = 0.00                
 +wwl      = 0.00                mobmod   = 1                   binunit  = 2                   
 +xl       = '-0.02e-6+dxl'      xw       = '0.0+dxw'           dwg      = 0.00                
 +dwb      = 0.00                acm      = 12                  ldif     = 9.00e-08            
 +hdif     = 'hdifn'             rsh      = 'rshn'              rd       = 0                   
 +rs       = 0                                      
 +vth0     = '(0.4793240+dvthn)*gas'   lvth0    = 3.9427570e-09       wvth0     = '0+dwvthn'
 +pvth0    = '0+dpvthn'
 +k1       = 0.5318048           
 +lk1      = -7.2142450e-09      k2       = 4.8649130e-03       lk2      = 1.7031508e-09       
 +k3       = 0.00                dvt0     = 0.00                dvt1     = 0.00                
 +dvt2     = 0.00                dvt0w    = 0.00                dvt1w    = 0.00                
 +dvt2w    = 0.00                nlx      = 0.00                w0       = 0.00                
 +k3b      = 0.00                vsat     = '8.5658600e04+dvsatn'        
 +lvsat    = -7.6228570e-04      ua       = -1.0347512e-09      lua      = 7.9829650e-17       
 +ub       = 3.0100842e-18       lub      = -1.5630905e-25      uc       = 1.4678947e-10       
 +luc      = -9.6698940e-18      rdsw     = 1.7000000e02        prwb     = 0.00                
 +prwg     = 0.00                wr       = 1.0000000           u0       = 4.3813580e-02       
 +lu0      = 1.0406078e-09       a0       = -0.2911571          la0      = 4.5814260e-07       
 +keta     = -1.5927499e-02      lketa    = -8.9540280e-09      a1       = 0.00                
 +a2       = 0.9900000           ags      = 4.6247390e-02       lags     = -3.0446980e-08      
 +b0       = 0.00                b1       = 0.00                voff     = -0.1621186          
 +lvoff    = 1.5735257e-08       nfactor  = 1.0000000           cit      = -1.5788565e-04      
 +lcit     = 3.0262734e-10       cdsc     = 0.00                cdscb    = 0.00                
 +cdscd    = 0.00                eta0     = 1.7142866e-05       leta0    = 3.8114280e-11       
 +etab     = -1.7142866e-05      letab    = -3.8114280e-11      dsub     = 0.00                
 +pclm     = 0.8687172           lpclm    = 1.5245718e-07       pdiblc1  = 1.0000000e-06       
 +pdiblc2  = 1.6847572e-03       lpdiblc2 = 1.5256819e-09       pdiblcb  = 1.0000000e-02       
 +drout    = 0.00                pscbe1   = 4.0000010e08        pscbe2   = 1.0000000e-06       
 +pvag     = 0.00                delta    = 1.0000000e-02       alpha0   = 0.0                 
 +alpha1   = 0.448150714         beta0    = 11.59263            kt1      = -0.2290285          
 +lkt1     = 5.7826780e-09       kt2      = -3.1611916e-02      lkt2     = 1.5570837e-09       
 +at       = 2.0000000e04        ute      = -1.3504703          lute     = -2.6630502e-07      
 +ua1      = 1.2266247e-09       lua1     = -3.0446746e-18      ub1      = -8.5744080e-20      
 +lub1     = -1.2004174e-24      uc1      = 6.7886830e-11       luc1     = -6.5172730e-17      
 +kt1l     = 0.00                prt      = 0                     
 +cj       = cjn                 pb       = 0.6882682           mj       = 0.3595262
 +cjsw     = cjswn               pbsw     = 0.6882682           mjsw     = 0.2003879
 +cjswg    = cjswgn              pbswg    = 0.6882682           mjswg    = 0.43879
 +cgdo     = cgon                cgso     = cgon                tcj      = 0.001040287
 +tcjsw    = 0.000645489         tcjswg   = 0.000645489         tpb      = 0.001554306
 +tpbsw    = 0.001554306         tpbswg   = 0.001554306
 +js       = 3.50e-07            jsw      = 1.45e-12             n        = 1
 +xti      = 3                   capmod   = 3                   nqsmod   = 0
 +xpart    = 1                   cf       = 0                   tlev     = 1
 +tlevc    = 1                   calcacm  = 1                   sfvtflag = 0
 +dlc      = 3e-9                llc      = -0.039              noimod  = 2
 +noia     = 2.00e19		noib     = 1.2e04	       noic	= 2.5e-13
 +em       = 3.0e07		ef       = 0.874               )

 .model nch.4 nmos	(	lmin     = 1.8e-007                 lmax     = '5.000e-07-dxl'         
 +wmin     = '1.0000e-05-dxw'                                   wmax     = 900.001e-6               
 +level    = 49                  tnom     = 25.0                version  = 3.24                 
 +tox      ='toxn*gas'             toxm     = 'toxn'              xj       = 1.6000000e-07       
 +nch      = 3.9000000e17        lln      = -1                  lwn      = 1.0000000           
 +wln      = 1.0000000           wwn      = 1                   lint     = 1.0000000e-08       
 +ll       = 0.00                lw       = 0.00                lwl      = 0.00                
 +wint     = 3.0000000e-09       wl       = 0.00                ww       = 0.00                
 +wwl      = 0.00                mobmod   = 1                   binunit  = 2                   
 +xl       = '-0.02e-6+dxl'      xw       = '0.0+dxw'           dwg      = 0.00                
 +dwb      = 0.00                acm      = 12                  ldif     = 9.00e-08            
 +hdif     = 'hdifn'             rsh      = 'rshn'              rd       = 0                   
 +rs       = 0                                      
 +vth0     = '(0.4752311+dvthn)*gas'   lvth0    = 5.8255000e-09       wvth0     = '0+dwvthn'
 +pvth0    = '0+dpvthn'
 +k1       = 0.4096095           
 +lk1      = 4.8995580e-08       k2       = 5.9309460e-02       lk2      = -2.3341336e-08      
 +k3       = 0.00                dvt0     = 0.00                dvt1     = 0.00                
 +dvt2     = 0.00                dvt0w    = 0.00                dvt1w    = 0.00                
 +dvt2w    = 0.00                nlx      = 0.00                w0       = 0.00                
 +k3b      = 0.00                vsat     = '8.4438960e04+dvsatn'        
 +lvsat    = -2.0125005e-04      ua       = -8.5891920e-10      lua      = -1.0530929e-18      
 +ub       = 2.6581962e-18       lub      = 5.5594780e-27       uc       = 1.1678118e-10       
 +luc      = 4.1339190e-18       rdsw     = 1.7000000e02        prwb     = 0.00                
 +prwg     = 0.00                wr       = 1.0000000           u0       = 4.3354470e-02       
 +lu0      = 1.2517989e-09       a0       = 0.5407774           la0      = 7.5452710e-08       
 +keta     = -4.1823270e-02      lketa    = 2.9580252e-09       a1       = 0.00                
 +a2       = 0.9900000           ags      = -1.9916179e-02      lags     = -1.1735286e-11      
 +b0       = 0.00                b1       = 0.00                voff     = -0.1245498          
 +lvoff    = -1.5463618e-09      nfactor  = 1.0000000           cit      = 2.7188900e-04       
 +lcit     = 1.0493098e-10       cdsc     = 0.00                cdscb    = 0.00                
 +cdscd    = 0.00                eta0     = -2.9375011e-04      leta0    = 1.8112505e-10       
 +etab     = 1.3875004e-03       letab    = -6.8425020e-10      dsub     = 0.00                
 +pclm     = 1.1076791           lpclm    = 4.2534670e-08       pdiblc1  = 1.0000000e-06       
 +pdiblc2  = -5.9354060e-03      lpdiblc2 = 5.0309570e-09       pdiblcb  = 1.0000000e-02       
 +drout    = 0.00                pscbe1   = 4.0000000e08        pscbe2   = 1.0000000e-06       
 +pvag     = 0.00                delta    = 1.0000000e-02       alpha0   = 0.0                 
 +alpha1   = 0.448150714         beta0    = 11.59263            kt1      = -0.2271500          
 +lkt1     = 4.9185610e-09       kt2      = -2.9537767e-02      lkt2     = 6.0297430e-10       
 +at       = 2.0000000e04        ute      = -2.0822306          lute     = 7.0304750e-08       
 +ua1      = 1.2182583e-09       lua1     = 8.0390990e-19       ub1      = -3.5266740e-18      
 +lub1     = 3.8241010e-25       uc1      = -1.3815420e-10      luc1     = 2.9606131e-17       
 +kt1l     = 0.00                prt      = 0                       
 +cj       = cjn                 pb       = 0.6882682           mj       = 0.3595262
 +cjsw     = cjswn               pbsw     = 0.6882682           mjsw     = 0.2003879
 +cjswg    = cjswgn              pbswg    = 0.6882682           mjswg    = 0.43879
 +cgdo     = cgon                cgso     = cgon                tcj      = 0.001040287
 +tcjsw    = 0.000645489         tcjswg   = 0.000645489         tpb      = 0.001554306
 +tpbsw    = 0.001554306         tpbswg   = 0.001554306
 +js       = 3.50e-07            jsw      = 1.45e-12             n        = 1
 +xti      = 3                   capmod   = 3                   nqsmod   = 0
 +xpart    = 1                   cf       = 0                   tlev     = 1
 +tlevc    = 1                   calcacm  = 1                   sfvtflag = 0
 +dlc      = 3e-9                llc      = -0.039              noimod  = 2
 +noia     = 2.00e19		noib     = 1.2e04	       noic	= 2.5e-13
 +em       = 3.0e07		ef       = 0.874               )

 .model nch.5 nmos	(	lmin     = '1.000e-05-dxl'         lmax     = 20.001e-006              
 +wmin     = '1.2000e-06-dxw'                                   wmax     = '1.0000e-05-dxw'         
 +level    = 49                  tnom     = 25.0                version  = 3.24                 
 +tox      = 'toxn*gas'             toxm     = 'toxn'              xj       = 1.6000000e-07       
 +nch      = 3.9000000e17        lln      = -1                  lwn      = 1.0000000           
 +wln      = 1.0000000           wwn      = 1                   lint     = 1.0000000e-08       
 +ll       = 0.00                lw       = 0.00                lwl      = 0.00                
 +wint     = 3.0000000e-09       wl       = 0.00                ww       = 0.00                
 +wwl      = 0.00                mobmod   = 1                   binunit  = 2                   
 +xl       = '-0.02e-6+dxl'      xw       = '0.0+dxw'           dwg      = 0.00                
 +dwb      = 0.00                acm      = 12                  ldif     = 9.00e-08            
 +hdif     = 'hdifn'             rsh      = 'rshn'              rd       = 0                   
 +rs       = 0                                      
 +vth0     = '(0.4364873+dvthn)*gas'   wvth0    = '6.8761140e-10+dwvthn' pvth0    = '0+dpvthn'     
 +k1       = 0.5102321           
 +wk1      = 3.9956060e-08       k2       = 1.6091494e-02       wk2      = -1.2928737e-08      
 +k3       = 0.00                dvt0     = 0.00                dvt1     = 0.00                
 +dvt2     = 0.00                dvt0w    = 0.00                dvt1w    = 0.00                
 +dvt2w    = 0.00                nlx      = 0.00                w0       = 0.00                
 +k3b      = 0.00                vsat     = '9.0000010e04+dvsatn'        
 +ua       = -5.8859420e-10      wua      = -2.3665659e-16      ub       = 2.3329335e-18       
 +wub      = -1.9367960e-25      uc       = 1.1057788e-10       wuc      = -1.8159270e-17      
 +rdsw     = 1.7000000e02        prwb     = 0.00                prwg     = 0.00                
 +wr       = 1.0000000           u0       = 4.3035900e-02       wu0      = -8.3200990e-09      
 +a0       = 0.3702259           wa0      = -1.4643313e-09      keta     = 1.0357677e-02       
 +wketa    = -1.0935369e-08      a1       = 0.00                a2       = 0.9900000           
 +ags      = 2.0000000e-02       b0       = 0.00                b1       = 0.00                
 +voff     = -0.1406671          wvoff    = 8.9072240e-10       nfactor  = 1.0000000           
 +cit      = -1.0000001e-04      cdsc     = 0.00                cdscb    = 0.00                
 +cdscd    = 0.00                eta0     = 5.0000000e-05       etab     = -5.0000000e-05      
 +dsub     = 0.00                pclm     = 0.8000001           pdiblc1  = 1.0000000e-06       
 +pdiblc2  = 6.9999990e-04       pdiblcb  = 1.0000000e-02       drout    = 0.00                
 +pscbe1   = 2.0000003e08        pscbe2   = 1.0000000e-06       pvag     = 0.00                
 +delta    = 1.0000000e-02       alpha0   = 0.0                 alpha1   = 0.448150714         
 +beta0    = 11.59263            kt1      = -0.2232244          wkt1     = -8.2151660e-09      
 +kt2      = -3.0428693e-02      wkt2     = 1.6245854e-09       at       = 2.0000000e04        
 +ute      = -1.5803809          wute     = 3.8084330e-09       ua1      = 1.2240000e-09       
 +ub1      = -1.0684574e-18      wub1     = -5.2442470e-25      uc1      = 2.4230474e-11       
 +wuc1     = -1.2579110e-16      puc1     = -1.4905616e-28      kt1l     = 0.00                
 +prt      = 0                               
 +cj       = cjn                 pb       = 0.6882682           mj       = 0.3595262
 +cjsw     = cjswn               pbsw     = 0.6882682           mjsw     = 0.2003879
 +cjswg    = cjswgn              pbswg    = 0.6882682           mjswg    = 0.43879
 +cgdo     = cgon                cgso     = cgon                tcj      = 0.001040287
 +tcjsw    = 0.000645489         tcjswg   = 0.000645489         tpb      = 0.001554306
 +tpbsw    = 0.001554306         tpbswg   = 0.001554306
 +js       = 3.50e-07            jsw      = 1.45e-12             n        = 1
 +xti      = 3                   capmod   = 3                   nqsmod   = 0
 +xpart    = 1                   cf       = 0                   tlev     = 1
 +tlevc    = 1                   calcacm  = 1                   sfvtflag = 0
 +dlc      = 3e-9                llc      = -0.039              noimod  = 2
 +noia     = 2.00e19		noib     = 1.2e04	       noic	= 2.5e-13
 +em       = 3.0e07		ef       = 0.874               )

 .model nch.6 nmos	(	lmin     = '1.200e-06-dxl'         lmax     = '1.000e-05-dxl'         
 +wmin     = '1.2000e-06-dxw'                                   wmax     = '1.0000e-05-dxw'         
 +level    = 49                  tnom     = 25.0                version  = 3.24                 
 +tox      = 'toxn*gas'             toxm     = 'toxn'              xj       = 1.6000000e-07       
 +nch      = 3.9000000e17        lln      = -1                  lwn      = 1.0000000           
 +wln      = 1.0000000           wwn      = 1                   lint     = 1.0000000e-08       
 +ll       = 0.00                lw       = 0.00                lwl      = 0.00                
 +wint     = 3.0000000e-09       wl       = 0.00                ww       = 0.00                
 +wwl      = 0.00                mobmod   = 1                   binunit  = 2                   
 +xl       = '-0.02e-6+dxl'      xw       = '0.0+dxw'           dwg      = 0.00                
 +dwb      = 0.00                acm      = 12                  ldif     = 9.00e-08            
 +hdif     = 'hdifn'             rsh      = 'rshn'              rd       = 0                   
 +rs       = 0                                      
 +vth0     = '(0.4303924+dvthn)*gas'   lvth0    = 6.0706090e-08       wvth0    = '7.8115020e-10+dwvthn'       
 +pvth0    = '-9.3168750e-16+dpvthn'      k1       = 0.5085090           lk1      = 1.7161611e-08       
 +wk1      = 4.2216520e-08       pk1      = -2.2514154e-14      k2       = 1.7310230e-02       
 +lk2      = -1.2138612e-08      wk2      = -1.3957471e-08      pk2      = 1.0246181e-14       
 +k3       = 0.00                dvt0     = 0.00                dvt1     = 0.00                
 +dvt2     = 0.00                dvt0w    = 0.00                dvt1w    = 0.00                
 +dvt2w    = 0.00                nlx      = 0.00                w0       = 0.00                
 +k3b      = 0.00                vsat     = '9.0678020e04+dvsatn'        
 +lvsat    = -6.7530250e-03      wvsat    = -1.9104627e-04      pvsat    = 1.9027204e-09       
 +ua       = -5.3771250e-10      lua      = -5.0678040e-16      wua      = -2.7926046e-16      
 +pua      = 4.2433420e-22       ub       = 2.2537915e-18       lub      = 7.8825360e-25       
 +wub      = -1.4282058e-25      pub      = -5.0655580e-31      uc       = 1.0657759e-10       
 +luc      = 3.9842870e-17       wuc      = -1.7297008e-17      puc      = -8.5881340e-24      
 +rdsw     = 1.7000000e02        prwb     = 0.00                prwg     = 0.00                
 +wr       = 1.0000000           u0       = 4.2730270e-02       lu0      = 3.0440912e-09       
 +wu0      = -8.5686630e-09      pu0      = 2.4756895e-15       a0       = 0.4062600           
 +la0      = -3.5889950e-07      wa0      = -1.0786144e-08      pa0      = 9.2845460e-14       
 +keta     = 1.4894814e-02       lketa    = -4.5189890e-08      wketa    = -1.2924230e-08      
 +pketa    = 1.9809019e-14       a1       = 0.00                a2       = 0.9900000           
 +ags      = 2.0000000e-02       b0       = 0.00                b1       = 0.00                
 +voff     = -0.1395822          lvoff    = -1.0806052e-08      wvoff    = 5.5485390e-10       
 +pvoff    = 3.3452410e-15       nfactor  = 1.0000000           cit      = -1.2675911e-04      
 +lcit     = 2.6652053e-10       cdsc     = 0.00                cdscb    = 0.00                
 +cdscd    = 0.00                eta0     = 5.0000000e-05       etab     = -5.0000000e-05      
 +dsub     = 0.00                pclm     = 0.7755287           lpclm    = 2.4373449e-07       
 +wpclm    = -1.9103656e-08      ppclm    = 1.9027247e-13       pdiblc1  = 1.0000000e-06       
 +pdiblc2  = 3.9681810e-04       lpdiblc2 = 3.0196912e-09       pdiblcb  = 1.0000000e-02       
 +drout    = 0.00                pscbe1   = 1.7363640e08        lpscbe1  = 2.6258185e02        
 +pscbe2   = 1.0000000e-06       pvag     = 0.00                delta    = 1.0000000e-02       
 +alpha0   = 0.0                 alpha1   = 0.448150714         beta0    = 11.59263            
 +kt1      = -0.2231775          lkt1     = -4.6746150e-10      wkt1     = -8.6881510e-09      
 +pkt1     = 4.7109120e-15       kt2      = -3.0469729e-02      lkt2     = 4.0873210e-10       
 +wkt2     = 2.0392819e-09       pkt2     = -4.1303770e-15      at       = 2.0000000e04        
 +ute      = -1.5809486          lute     = 5.6541540e-09       wute     = 9.5395260e-09       
 +pute     = -5.7081670e-14      ua1      = 1.2240000e-09       ub1      = -1.0643074e-18      
 +lub1     = -4.1333620e-26      wub1     = -5.6635370e-25      pub1     = 4.1761280e-31       
 +uc1      = 2.4967807e-11       luc1     = -7.3437550e-18      wuc1     = -1.3323848e-16      
 +puc1     = 7.4175780e-23       kt1l     = 0.00                prt      = 0                   
 +cj       = cjn                 pb       = 0.6882682           mj       = 0.3595262
 +cjsw     = cjswn               pbsw     = 0.6882682           mjsw     = 0.2003879
 +cjswg    = cjswgn              pbswg    = 0.6882682           mjswg    = 0.43879
 +cgdo     = cgon                cgso     = cgon                tcj      = 0.001040287
 +tcjsw    = 0.000645489         tcjswg   = 0.000645489         tpb      = 0.001554306
 +tpbsw    = 0.001554306         tpbswg   = 0.001554306
 +js       = 3.50e-07            jsw      = 1.45e-12             n        = 1
 +xti      = 3                   capmod   = 3                   nqsmod   = 0
 +xpart    = 1                   cf       = 0                   tlev     = 1
 +tlevc    = 1                   calcacm  = 1                   sfvtflag = 0
 +dlc      = 3e-9                llc      = -0.039              noimod  = 2
 +noia     = 2.00e19		noib     = 1.2e04	       noic	= 2.5e-13
 +em       = 3.0e07		ef       = 0.874               )

 .model nch.7 nmos	(	lmin     = '5.000e-07-dxl'         lmax     = '1.200e-06-dxl'         
 +wmin     = '1.2000e-06-dxw'                                   wmax     = '1.0000e-05-dxw'         
 +level    = 49                  tnom     = 25.0                version  = 3.24                 
 +tox      = 'toxn*gas'             toxm     = 'toxn'              xj       = 1.6000000e-07       
 +nch      = 3.9000000e17        lln      = -1                  lwn      = 1.0000000           
 +wln      = 1.0000000           wwn      = 1                   lint     = 1.0000000e-08       
 +ll       = 0.00                lw       = 0.00                lwl      = 0.00                
 +wint     = 3.0000000e-09       wl       = 0.00                ww       = 0.00                
 +wwl      = 0.00                mobmod   = 1                   binunit  = 2                   
 +xl       = '-0.02e-6+dxl'      xw       = '0.0+dxw'           dwg      = 0.00                
 +dwb      = 0.00                acm      = 12                  ldif     = 9.00e-08            
 +hdif     = 'hdifn'             rsh      = 'rshn'              rd       = 0                   
 +rs       = 0                                      
 +vth0     = '(0.4799949+dvthn)*gas'   lvth0    = 3.1671320e-09       wvth0    = '-6.7044360e-09+dwvthn'      
 +pvth0    = '7.7515980e-15+dpvthn'      k1       = 0.5329412           lk1      = -1.1179709e-08      
 +wk1      = -1.1356744e-08      pk1      = 3.9630840e-14       k2       = 3.8880950e-03       
 +lk2      = 3.4310650e-09       wk2      = 9.7623110e-09       pk2      = -1.7268767e-14      
 +k3       = 0.00                dvt0     = 0.00                dvt1     = 0.00                
 +dvt2     = 0.00                dvt0w    = 0.00                dvt1w    = 0.00                
 +dvt2w    = 0.00                nlx      = 0.00                w0       = 0.00                
 +k3b      = 0.00                vsat     = '8.5513590e04+dvsatn'        
 +lvsat    = -7.6228650e-04      wvsat    = 1.4492224e-03       ua       = -1.0276002e-09      
 +lua      = 6.1489260e-17       wua      = -7.1467150e-17      pua      = 1.8329395e-22       
 +ub       = 3.0435232e-18       lub      = -1.2783527e-25      wub      = -3.3419020e-25      
 +pub      = -2.8456703e-31      uc       = 1.4653272e-10       luc      = -6.5050680e-18      
 +wuc      = 2.5660584e-18       puc      = -3.1629300e-23      rdsw     = 1.7000000e02        
 +prwb     = 0.00                prwg     = 0.00                wr       = 1.0000000           
 +u0       = 4.4526490e-02       lu0      = 9.6047130e-10       wu0      = -7.1248670e-09      
 +pu0      = 8.0088650e-16       a0       = -0.3035701          la0      = 4.6450350e-07       
 +wa0      = 1.2405528e-07       pa0      = -6.3570630e-14      keta     = -1.5493870e-02      
 +lketa    = -9.9390180e-09      wketa    = -4.3336820e-09      pketa    = 9.8439870e-15       
 +a1       = 0.00                a2       = 0.9900000           ags      = 4.9808680e-02       
 +lags     = -3.4578080e-08      wags     = -3.5591570e-08      pags     = 4.1286230e-14       
 +b0       = 0.00                b1       = 0.00                voff     = -0.1627226          
 +lvoff    = 1.6036822e-08       wvoff    = 6.0367980e-09       pvoff    = -3.0138140e-15      
 +nfactor  = 1.0000000           cit      = -1.5788565e-04      lcit     = 3.0262734e-10       
 +cdsc     = 0.00                cdscb    = 0.00                cdscd    = 0.00                
 +eta0     = 1.7142869e-05       leta0    = 3.8114280e-11       etab     = -1.7142869e-05      
 +letab    = -3.8114280e-11      dsub     = 0.00                pclm     = 0.8548421           
 +lpclm    = 1.5173094e-07       wpclm    = 1.3866737e-07       ppclm    = 7.2580320e-15       
 +pdiblc1  = 1.0000000e-06       pdiblc2  = 1.7737894e-03       lpdiblc2 = 1.4224044e-09       
 +wpdiblc2 = -8.8978950e-10      ppdiblc2 = 1.0321563e-15       pdiblcb  = 1.0000000e-02       
 +drout    = 0.00                pscbe1   = 4.0000010e08        pscbe2   = 1.0000000e-06       
 +pvag     = 0.00                delta    = 1.0000000e-02       alpha0   = 0.0                 
 +alpha1   = 0.448150714         beta0    = 11.59263            kt1      = -0.2286601          
 +lkt1     = 5.8923870e-09       wkt1     = -3.6818220e-09      pkt1     = -1.0964308e-15      
 +kt2      = -3.1479932e-02      lkt2     = 1.5805686e-09       wkt2     = -1.3190541e-09      
 +pkt2     = -2.3470743e-16      at       = 2.0000000e04        ute      = -1.3089141          
 +lute     = -3.0990586e-07      wute     = -4.1531240e-07      pute     = 4.3574660e-13       
 +ua1      = 1.2269809e-09       lua1     = -3.4577810e-18      wua1     = -3.5591300e-18      
 +pua1     = 4.1285910e-24       ub1      = 7.5674550e-20       lub1     = -1.3637128e-24      
 +wub1     = -1.6132161e-24      pub1     = 1.6319734e-30       uc1      = 8.5944920e-11       
 +luc1     = -7.8077210e-17      wuc1     = -1.8047248e-16      puc1     = 1.2896722e-22       
 +kt1l     = 0.00                prt      = 0                        
 +cj       = cjn                 pb       = 0.6882682           mj       = 0.3595262
 +cjsw     = cjswn               pbsw     = 0.6882682           mjsw     = 0.2003879
 +cjswg    = cjswgn              pbswg    = 0.6882682           mjswg    = 0.43879
 +cgdo     = cgon                cgso     = cgon                tcj      = 0.001040287
 +tcjsw    = 0.000645489         tcjswg   = 0.000645489         tpb      = 0.001554306
 +tpbsw    = 0.001554306         tpbswg   = 0.001554306
 +js       = 3.50e-07            jsw      = 1.45e-12             n        = 1
 +xti      = 3                   capmod   = 3                   nqsmod   = 0
 +xpart    = 1                   cf       = 0                   tlev     = 1
 +tlevc    = 1                   calcacm  = 1                   sfvtflag = 0
 +dlc      = 3e-9                llc      = -0.039              noimod  = 2
 +noia     = 2.00e19		noib     = 1.2e04	       noic	= 2.5e-13
 +em       = 3.0e07		ef       = 0.874               )

 .model nch.8 nmos	(	lmin     = 1.8e-007                 lmax     = '5.000e-07-dxl'         
 +wmin     = '1.2000e-06-dxw'                                   wmax     = '1.0000e-05-dxw'         
 +level    = 49                  tnom     = 25.0                version  = 3.24                 
 +tox      = 'toxn*gas'             toxm     = 'toxn'              xj       = 1.6000000e-07       
 +nch      = 3.9000000e17        lln      = -1                  lwn      = 1.0000000           
 +wln      = 1.0000000           wwn      = 1                   lint     = 1.0000000e-08       
 +ll       = 0.00                lw       = 0.00                lwl      = 0.00                
 +wint     = 3.0000000e-09       wl       = 0.00                ww       = 0.00                
 +wwl      = 0.00                mobmod   = 1                   binunit  = 2                   
 +xl       = '-0.02e-6+dxl'      xw       = '0.0+dxw'           dwg      = 0.00                
 +dwb      = 0.00                acm      = 12                  ldif     = 9.00e-08            
 +hdif     = 'hdifn'             rsh      = 'rshn'              rd       = 0                   
 +rs       = 0                                      
 +vth0     = '(0.4751966+dvthn)*gas'   lvth0    = 5.3743360e-09       wvth0    = '3.4482360e-10+dwvthn'       
 +pvth0    = '4.5089380e-15+dpvthn'      k1       = 0.4007356           lk1      = 4.9634880e-08       
 +wk1      = 8.8686750e-08       pk1      = -6.3891820e-15      k2       = 6.3188600e-02       
 +lk2      = -2.3847164e-08      wk2      = -3.8768180e-08      pk2      = 5.0552590e-15       
 +k3       = 0.00                dvt0     = 0.00                dvt1     = 0.00                
 +dvt2     = 0.00                dvt0w    = 0.00                dvt1w    = 0.00                
 +dvt2w    = 0.00                nlx      = 0.00                w0       = 0.00                
 +k3b      = 0.00                vsat     = '8.4294280e04+dvsatn'        
 +lvsat    = -2.0140363e-04      wvsat    = 1.4459029e-03       pvsat    = 1.5350395e-12       
 +ua       = -9.0172960e-10      lua      = 3.5887640e-18       wua      = 4.2784730e-16       
 +pua      = -4.6390690e-23      ub       = 2.7527719e-18       lub      = 5.9103390e-27       
 +wub      = -9.4519130e-25      pub      = -3.5064990e-33      uc       = 1.2291169e-10       
 +luc      = 4.3605990e-18       wuc      = -6.1268420e-17      puc      = -2.2654354e-24      
 +rdsw     = 1.7000000e02        prwb     = 0.00                prwg     = 0.00                
 +wr       = 1.0000000           u0       = 4.3840840e-02       lu0      = 1.2758692e-09       
 +wu0      = -4.8608560e-09      pu0      = -2.4055863e-16      a0       = 0.5262308           
 +la0      = 8.2795080e-08       wa0      = 1.4537927e-07       pa0      = -7.3379640e-14      
 +keta     = -4.4118840e-02      lketa    = 3.2284670e-09       wketa    = 2.2941933e-08       
 +pketa    = -2.7027957e-15      a1       = 0.00                a2       = 0.9900000           
 +ags      = -2.7693154e-02      lags     = 1.0727657e-09       wags     = 7.7723050e-08       
 +pags     = -1.0838496e-14      b0       = 0.00                b1       = 0.00                
 +voff     = -0.1247105          lvoff    = -1.4487617e-09      wvoff    = 1.6054964e-09       
 +pvoff    = -9.7541500e-16      nfactor  = 1.0000000           cit      = 2.7498236e-04       
 +lcit     = 1.0350804e-10       wcit     = -3.0914837e-11      pcit     = 1.4220811e-17       
 +cdsc     = 0.00                cdscb    = 0.00                cdscd    = 0.00                
 +eta0     = -2.9405078e-04      leta0    = 1.8126334e-10       weta0    = 3.0046217e-12       
 +peta0    = -1.3821218e-18      etab     = 1.3878694e-03       letab    = -6.8441990e-10      
 +wetab    = -3.6866540e-12      petab    = 1.6959704e-18       dsub     = 0.00                
 +pclm     = 1.1010191           lpclm    = 3.8489530e-08       wpclm    = 6.6560680e-08       
 +ppclm    = 4.0427110e-14       pdiblc1  = 1.0000000e-06       pdiblc2  = -6.1190130e-03      
 +lpdiblc2 = 5.0530930e-09       wpdiblc2 = 1.8349379e-09       ppdiblc2 = -2.2121929e-16      
 +pdiblcb  = 1.0000000e-02       drout    = 0.00                pscbe1   = 4.0000000e08        
 +pscbe2   = 1.0000000e-06       pvag     = 0.00                delta    = 1.0000000e-02       
 +alpha0   = 0.0                 alpha1   = 0.448150714         beta0    = 11.59263            
 +kt1      = -0.2269240          lkt1     = 5.0937890e-09       wkt1     = -2.2583577e-09      
 +pkt1     = -1.7512235e-15      kt2      = -2.9338669e-02      lkt2     = 5.9558730e-10       
 +wkt2     = -1.9897783e-09      pkt2     = 7.3825670e-17       at       = 2.0000000e04        
 +ute      = -2.1610963          lute     = 8.2097990e-08       wute     = 7.8818350e-07       
 +pute     = -1.1786150e-13      ua1      = 1.2174792e-09       lua1     = 9.1298580e-19       
 +wua1     = 7.7858620e-18       pua1     = -1.0901051e-24      ub1      = -3.8124500e-18      
 +lub1     = 4.2482470e-25       wub1     = 2.8560549e-24       pub1     = -4.2389140e-31      
 +uc1      = -1.5406690e-10      luc1     = 3.2328220e-17       wuc1     = 1.5903152e-16       
 +puc1     = -2.7204607e-23      kt1l     = 0.00                prt      = 0                   
 +cj       = cjn                 pb       = 0.6882682           mj       = 0.3595262
 +cjsw     = cjswn               pbsw     = 0.6882682           mjsw     = 0.2003879
 +cjswg    = cjswgn              pbswg    = 0.6882682           mjswg    = 0.43879
 +cgdo     = cgon                cgso     = cgon                tcj      = 0.001040287
 +tcjsw    = 0.000645489         tcjswg   = 0.000645489         tpb      = 0.001554306
 +tpbsw    = 0.001554306         tpbswg   = 0.001554306
 +js       = 3.50e-07            jsw      = 1.45e-12             n        = 1
 +xti      = 3                   capmod   = 3                   nqsmod   = 0
 +xpart    = 1                   cf       = 0                   tlev     = 1
 +tlevc    = 1                   calcacm  = 1                   sfvtflag = 0
 +dlc      = 3e-9                llc      = -0.039              noimod  = 2
 +noia     = 2.00e19		noib     = 1.2e04	       noic	= 2.5e-13
 +em       = 3.0e07		ef       = 0.874               )

 .model nch.9 nmos	(	lmin     = '1.000e-05-dxl'         lmax     = 20.001e-006              
 +wmin     = '5.0000e-07-dxw'                                   wmax     = '1.2000e-06-dxw'         
 +level    = 49                  tnom     = 25.0                version  = 3.24                 
 +tox      = 'toxn*gas'             toxm     = 'toxn'              xj       = 1.6000000e-07       
 +nch      = 3.9000000e17        lln      = -1                  lwn      = 1.0000000           
 +wln      = 1.0000000           wwn      = 1                   lint     = 1.0000000e-08       
 +ll       = 0.00                lw       = 0.00                lwl      = 0.00                
 +wint     = 3.0000000e-09       wl       = 0.00                ww       = 0.00                
 +wwl      = 0.00                mobmod   = 1                   binunit  = 2                   
 +xl       = '-0.02e-6+dxl'      xw       = '0.0+dxw'           dwg      = 0.00                
 +dwb      = 0.00                acm      = 12                  ldif     = 9.00e-08            
 +hdif     = 'hdifn'             rsh      = 'rshn'              rd       = 0                   
 +rs       = 0                                      
 +vth0     = '(0.4406337+dvthn)*gas'   wvth0    = '-4.2631090e-09+dwvthn'  pvth0    = '0+dpvthn'    
 +k1       = 0.5610723           
 +wk1      = -2.0747230e-08      k2       = 1.1422717e-03       wk2      = 4.9206340e-09       
 +k3       = 0.00                dvt0     = 0.00                dvt1     = 0.00                
 +dvt2     = 0.00                dvt0w    = 0.00                dvt1w    = 0.00                
 +dvt2w    = 0.00                nlx      = 0.00                w0       = 0.00                
 +k3b      = 0.00                vsat     = '9.0000010e04+dvsatn'        
 +ua       = -9.0664090e-10      wua      = 1.4309126e-16       ub       = 2.2997995e-18       
 +wub      = -1.5411778e-25      uc       = 1.0721270e-10       wuc      = -1.4141237e-17      
 +rdsw     = 1.7000000e02        prwb     = 0.00                prwg     = 0.00                
 +wr       = 1.0000000           u0       = 3.5199720e-02       wu0      = 1.0362965e-09       
 +a0       = 0.3047864           wa0      = 7.6670510e-08       keta     = 1.0152902e-03       
 +wketa    = 2.1944087e-10       a1       = 0.00                a2       = 0.9900000           
 +ags      = 2.0000000e-02       b0       = 0.00                b1       = 0.00                
 +voff     = -0.1391954          wvoff    = -8.6656900e-10      nfactor  = 1.0000000           
 +cit      = -1.0000004e-04      cdsc     = 0.00                cdscb    = 0.00                
 +cdscd    = 0.00                eta0     = 5.0000000e-05       etab     = -5.0000000e-05      
 +dsub     = 0.00                pclm     = 0.8000001           pdiblc1  = 1.0000000e-06       
 +pdiblc2  = 7.0000030e-04       pdiblcb  = 1.0000000e-02       drout    = 0.00                
 +pscbe1   = 2.0000003e08        pscbe2   = 1.0000000e-06       pvag     = 0.00                
 +delta    = 1.0000000e-02       alpha0   = 0.0                 alpha1   = 0.448150714         
 +beta0    = 11.59263            kt1      = -0.2313184          wkt1     = 1.4490446e-09       
 +kt2      = -2.9076951e-02      wkt2     = 1.0605161e-11       at       = 2.0000000e04        
 +ute      = -1.6093186          wute     = 3.8360070e-08       ua1      = 1.2240000e-09       
 +ub1      = -1.5012456e-18      wub1     = -7.6755530e-27      uc1      = -6.8805160e-11      
 +wuc1     = -1.4706552e-17      kt1l     = 0.00                prt      = 0                   
 +cj       = cjn                 pb       = 0.6882682           mj       = 0.3595262
 +cjsw     = cjswn               pbsw     = 0.6882682           mjsw     = 0.2003879
 +cjswg    = cjswgn              pbswg    = 0.6882682           mjswg    = 0.43879
 +cgdo     = cgon                cgso     = cgon                tcj      = 0.001040287
 +tcjsw    = 0.000645489         tcjswg   = 0.000645489         tpb      = 0.001554306
 +tpbsw    = 0.001554306         tpbswg   = 0.001554306
 +js       = 3.50e-07            jsw      = 1.45e-12             n        = 1
 +xti      = 3                   capmod   = 3                   nqsmod   = 0
 +xpart    = 1                   cf       = 0                   tlev     = 1
 +tlevc    = 1                   calcacm  = 1                   sfvtflag = 0
 +dlc      = 3e-9                llc      = -0.039              noimod  = 2
 +noia     = 2.00e19		noib     = 1.2e04	       noic	= 2.5e-13
 +em       = 3.0e07		ef       = 0.874               )

 .model nch.10 nmos	(	lmin     = '1.200e-06-dxl'         lmax     = '1.000e-05-dxl'         
 +wmin     = '5.0000e-07-dxw'                                   wmax     = '1.2000e-06-dxw'         
 +level    = 49                  tnom     = 25.0                version  = 3.24                 
 +tox      = 'toxn*gas'             toxm     = 'toxn'              xj       = 1.6000000e-07       
 +nch      = 3.9000000e17        lln      = -1                  lwn      = 1.0000000           
 +wln      = 1.0000000           wwn      = 1                   lint     = 1.0000000e-08       
 +ll       = 0.00                lw       = 0.00                lwl      = 0.00                
 +wint     = 3.0000000e-09       wl       = 0.00                ww       = 0.00                
 +wwl      = 0.00                mobmod   = 1                   binunit  = 2                   
 +xl       = '-0.02e-6+dxl'      xw       = '0.0+dxw'           dwg      = 0.00                
 +dwb      = 0.00                acm      = 12                  ldif     = 9.00e-08            
 +hdif     = 'hdifn'             rsh      = 'rshn'              rd       = 0                   
 +rs       = 0                                      
 +vth0     = '(0.4340151+dvthn)*gas'   lvth0    = 6.5920480e-08       wvth0    = '-3.5444660e-09+dwvthn'      
 +pvth0    = '-7.1576720e-15+dpvthn'     k1       = 0.5600169           lk1      = 1.0512358e-08       
 +wk1      = -1.9283881e-08      pk1      = -1.4574950e-14      k2       = 1.6854487e-03       
 +lk2      = -5.4100510e-09      wk2      = 4.6985170e-09       pk2      = 2.2122807e-15       
 +k3       = 0.00                dvt0     = 0.00                dvt1     = 0.00                
 +dvt2     = 0.00                dvt0w    = 0.00                dvt1w    = 0.00                
 +dvt2w    = 0.00                nlx      = 0.00                w0       = 0.00                
 +k3b      = 0.00                vsat     = '9.0622610e04+dvsatn'        
 +lvsat    = -6.2011020e-03      wvsat    = -1.2487893e-04      pvsat    = 1.2437262e-09       
 +ua       = -8.8743970e-10      lua      = -1.9124487e-16      wua      = 1.3831368e-16       
 +pua      = 4.7584710e-23       ub       = 2.2584638e-18       lub      = 4.1170380e-25       
 +wub      = -1.4839938e-25      pub      = -5.6955330e-32      uc       = 1.0315766e-10       
 +luc      = 4.0388150e-17       wuc      = -1.3213606e-17      puc      = -9.2391890e-24      
 +rdsw     = 1.7000000e02        prwb     = 0.00                prwg     = 0.00                
 +wr       = 1.0000000           u0       = 3.4827660e-02       lu0      = 3.7057520e-09       
 +wu0      = 8.6705280e-10       pu0      = 1.6856667e-15       a0       = 0.3245910           
 +la0      = -1.9725388e-07      wa0      = 8.6726660e-08       pa0      = -1.0015934e-13      
 +keta     = 3.8292700e-03       lketa    = -2.8027248e-08      wketa    = 2.8803285e-10       
 +pketa    = -6.8318020e-16      a1       = 0.00                a2       = 0.9900000           
 +ags      = 2.0000000e-02       b0       = 0.00                b1       = 0.00                
 +voff     = -0.1388337          lvoff    = -3.6022220e-09      wvoff    = -3.3884450e-10      
 +pvoff    = -5.2561320e-15      nfactor  = 1.0000000           cit      = -1.2672294e-04      
 +lcit     = 2.6616018e-10       wcit     = -4.3173710e-14      pcit     = 4.3027530e-19       
 +cdsc     = 0.00                cdscb    = 0.00                cdscd    = 0.00                
 +eta0     = 5.0000000e-05       etab     = -5.0000000e-05      dsub     = 0.00                
 +pclm     = 0.7699873           lpclm    = 2.9892766e-07       wpclm    = -1.2487239e-08      
 +ppclm    = 1.2437180e-13       pdiblc1  = 1.0000000e-06       pdiblc2  = 3.9681850e-04       
 +lpdiblc2 = 3.0196912e-09       pdiblcb  = 1.0000000e-02       drout    = 0.00                
 +pscbe1   = 1.7363640e08        lpscbe1  = 2.6258185e02        pscbe2   = 1.0000000e-06       
 +pvag     = 0.00                delta    = 1.0000000e-02       alpha0   = 0.0                 
 +alpha1   = 0.448150714         beta0    = 11.59263            kt1      = -0.2310088          
 +lkt1     = -3.0828107e-09      wkt1     = 6.6253410e-10       pkt1     = 7.8336390e-15       
 +kt2      = -2.8688708e-02      lkt2     = -3.8668810e-09      wkt2     = -8.7256760e-11      
 +pkt2     = 9.7470440e-16       at       = 2.0000000e04        ute      = -1.6080947          
 +lute     = -1.2190513e-08      wute     = 4.1951950e-08       pute     = -3.5775140e-14      
 +ua1      = 1.2240000e-09       ub1      = -1.5338095e-18      lub1     = 3.2433570e-25       
 +wub1     = -5.7682950e-27      pub1     = -1.8996434e-32      uc1      = -7.3164090e-11      
 +luc1     = 4.3414890e-17       wuc1     = -1.6068998e-17      puc1     = 1.3569954e-23       
 +kt1l     = 0.00                prt      = 0                    
 +cj       = cjn                 pb       = 0.6882682           mj       = 0.3595262
 +cjsw     = cjswn               pbsw     = 0.6882682           mjsw     = 0.2003879
 +cjswg    = cjswgn              pbswg    = 0.6882682           mjswg    = 0.43879
 +cgdo     = cgon                cgso     = cgon                tcj      = 0.001040287
 +tcjsw    = 0.000645489         tcjswg   = 0.000645489         tpb      = 0.001554306
 +tpbsw    = 0.001554306         tpbswg   = 0.001554306
 +js       = 3.50e-07            jsw      = 1.45e-12             n        = 1
 +xti      = 3                   capmod   = 3                   nqsmod   = 0
 +xpart    = 1                   cf       = 0                   tlev     = 1
 +tlevc    = 1                   calcacm  = 1                   sfvtflag = 0
 +dlc      = 3e-9                llc      = -0.039              noimod  = 2
 +noia     = 2.00e19		noib     = 1.2e04	       noic	= 2.5e-13
 +em       = 3.0e07		ef       = 0.874               )

 .model nch.11 nmos	(	lmin     = '5.000e-07-dxl'         lmax     = '1.200e-06-dxl'         
 +wmin     = '5.0000e-07-dxw'                                   wmax     = '1.2000e-06-dxw'         
 +level    = 49                  tnom     = 25.0                version  = 3.24                 
 +tox      = 'toxn*gas'             toxm     = 'toxn'              xj       = 1.6000000e-07       
 +nch      = 3.9000000e17        lln      = -1                  lwn      = 1.0000000           
 +wln      = 1.0000000           wwn      = 1                   lint     = 1.0000000e-08       
 +ll       = 0.00                lw       = 0.00                lwl      = 0.00                
 +wint     = 3.0000000e-09       wl       = 0.00                ww       = 0.00                
 +wwl      = 0.00                mobmod   = 1                   binunit  = 2                   
 +xl       = '-0.02e-6+dxl'      xw       = '0.0+dxw'           dwg      = 0.00                
 +dwb      = 0.00                acm      = 12                  ldif     = 9.00e-08            
 +hdif     = 'hdifn'             rsh      = 'rshn'              rd       = 0                   
 +rs       = 0                                      
 +vth0     = '(0.4821278+dvthn)*gas'   lvth0    = 1.0109751e-08       wvth0    = '-9.2511780e-09+dwvthn'      
 +pvth0    = '-5.3788820e-16+dpvthn'      k1       = 0.5552615           lk1      = 1.6028618e-08       
 +wk1      = -3.8007200e-08      pk1      = 7.1440980e-15       k2       = 3.5447990e-03       
 +lk2      = -7.5668960e-09      wk2      = 1.0172209e-08       pk2      = -4.1372030e-15      
 +k3       = 0.00                dvt0     = 0.00                dvt1     = 0.00                
 +dvt2     = 0.00                dvt0w    = 0.00                dvt1w    = 0.00                
 +dvt2w    = 0.00                nlx      = 0.00                w0       = 0.00                
 +k3b      = 0.00                vsat     = '8.5937130e04+dvsatn'        
 +lvsat    = -7.6594880e-04      wvsat    = 9.4352240e-04       pvsat    = 4.3808180e-12       
 +ua       = -1.3333591e-09      lua      = 3.2602160e-16       wua      = 2.9360883e-16       
 +pua      = -1.3255767e-22      ub       = 2.9690860e-18       lub      = -4.1261800e-25      
 +wub      = -2.4531215e-25      pub      = 5.5463480e-32       uc       = 1.6160392e-10       
 +luc      = -2.7409531e-17      wuc      = -1.5428970e-17      puc      = -6.6693660e-24      
 +rdsw     = 1.7000000e02        prwb     = 0.00                prwg     = 0.00                
 +wr       = 1.0000000           u0       = 3.5811860e-02       lu0      = 2.5640821e-09       
 +wu0      = 3.2804070e-09       pu0      = -1.1138246e-15      a0       = -0.1914371          
 +la0      = 4.0133880e-07       wa0      = -9.8314440e-09      pa0      = 1.1848049e-14       
 +keta     = -1.7824383e-02      lketa    = -2.9090079e-09      wketa    = -1.5510503e-09      
 +pketa    = 1.4501565e-15       a1       = 0.00                a2       = 0.9900000           
 +ags      = 2.0000000e-02       b0       = 0.00                b1       = 0.00                
 +voff     = -0.1515625          lvoff    = 1.1163230e-08       wvoff    = -7.2883150e-09      
 +pvoff    = 2.8052535e-15       nfactor  = 1.0000000           cit      = -1.5834050e-04      
 +lcit     = 3.0283653e-10       wcit     = 5.4312310e-13       pcit     = -2.4980728e-19      
 +cdsc     = 0.00                cdscb    = 0.00                cdscd    = 0.00                
 +eta0     = 1.7142847e-05       leta0    = 3.8114300e-11       etab     = -1.7142847e-05      
 +letab    = -3.8114300e-11      dsub     = 0.00                pclm     = 0.9444105           
 +lpclm    = 9.6596760e-08       wpclm    = 3.1722750e-08       ppclm    = 7.3088240e-14       
 +pdiblc1  = 1.0000000e-06       pdiblc2  = 1.1219129e-03       lpdiblc2 = 2.1785818e-09       
 +wpdiblc2 = -1.1144895e-10      ppdiblc2 = 1.2928064e-16       pdiblcb  = 1.0000000e-02       
 +drout    = 0.00                pscbe1   = 4.0000010e08        pscbe2   = 1.0000000e-06       
 +pvag     = 0.00                delta    = 1.0000000e-02       alpha0   = 0.0                 
 +alpha1   = 0.448150714         beta0    = 11.59263            kt1      = -0.2417087          
 +lkt1     = 9.3290630e-09       wkt1     = 1.1898274e-08       pkt1     = -5.1998210e-15      
 +kt2      = -3.4342460e-02      lkt2     = 2.6914670e-09       wkt2     = 2.0987987e-09       
 +pkt2     = -1.5611203e-15      at       = 2.0000000e04        ute      = -1.8126432          
 +lute     = 2.2508574e-07       wute     = 1.8614003e-07       pute     = -2.0303331e-13      
 +ua1      = 1.2240000e-09       ub1      = -1.6810433e-18      lub1     = 4.9512690e-25       
 +wub1     = 4.8430470e-25       pub1     = -5.8748110e-31      uc1      = -8.8066520e-11      
 +luc1     = 6.0701720e-17       wuc1     = 2.7297169e-17       puc1     = -3.6734800e-23      
 +kt1l     = 0.00                prt      = 0                    
 +cj       = cjn                 pb       = 0.6882682           mj       = 0.3595262
 +cjsw     = cjswn               pbsw     = 0.6882682           mjsw     = 0.2003879
 +cjswg    = cjswgn              pbswg    = 0.6882682           mjswg    = 0.43879
 +cgdo     = cgon                cgso     = cgon                tcj      = 0.001040287
 +tcjsw    = 0.000645489         tcjswg   = 0.000645489         tpb      = 0.001554306
 +tpbsw    = 0.001554306         tpbswg   = 0.001554306
 +js       = 3.50e-07            jsw      = 1.45e-12             n        = 1
 +xti      = 3                   capmod   = 3                   nqsmod   = 0
 +xpart    = 1                   cf       = 0                   tlev     = 1
 +tlevc    = 1                   calcacm  = 1                   sfvtflag = 0
 +dlc      = 3e-9                llc      = -0.039              noimod  = 2
 +noia     = 2.00e19		noib     = 1.2e04	       noic	= 2.5e-13
 +em       = 3.0e07		ef       = 0.874               )

 .model nch.12 nmos	(	lmin     = 1.8e-007                 lmax     = '5.000e-07-dxl'         
 +wmin     = '5.0000e-07-dxw'                                   wmax     = '1.2000e-06-dxw'         
 +level    = 49                  tnom     = 25.0                version  = 3.24                 
 +tox      = 'toxn*gas'             toxm     = 'toxn'              xj       = 1.6000000e-07       
 +nch      = 3.9000000e17        lln      = -1                  lwn      = 1.0000000           
 +wln      = 1.0000000           wwn      = 1                   lint     = 1.0000000e-08       
 +ll       = 0.00                lw       = 0.00                lwl      = 0.00                
 +wint     = 3.0000000e-09       wl       = 0.00                ww       = 0.00                
 +wwl      = 0.00                mobmod   = 1                   binunit  = 2                   
 +xl       = '-0.02e-6+dxl'      xw       = '0.0+dxw'           dwg      = 0.00                
 +dwb      = 0.00                acm      = 12                  ldif     = 9.00e-08            
 +hdif     = 'hdifn'             rsh      = 'rshn'              rd       = 0                   
 +rs       = 0                                      
 +vth0     = '(0.4891579+dvthn)*gas'   lvth0    = 6.8759450e-09       wvth0    = '-1.6324883e-08+dwvthn'      
 +pvth0    = '2.7160160e-15+dpvthn'       k1       = 0.4899670           lk1      = 4.6064080e-08       
 +wk1      = -1.7855582e-08      pk1      = -2.1256446e-15      k2       = 2.9298484e-02       
 +lk2      = -1.9413593e-08      wk2      = 1.6966123e-09       pk2      = -2.3842633e-16      
 +k3       = 0.00                dvt0     = 0.00                dvt1     = 0.00                
 +dvt2     = 0.00                dvt0w    = 0.00                dvt1w    = 0.00                
 +dvt2w    = 0.00                nlx      = 0.00                w0       = 0.00                
 +k3b      = 0.00                vsat     = '8.4736300e04+dvsatn'        
 +lvsat    = -2.1356932e-04      wvsat    = 9.1813100e-04       pvsat    = 1.6060880e-11       
 +ua       = -5.2740020e-10      lua      = -4.4719440e-17      wua      = -1.9101984e-17      
 +pua      = 1.1289303e-23       ub       = 2.0039751e-18       lub      = 3.1333025e-26       
 +wub      = -5.1128100e-26      pub      = -3.3861180e-32      uc       = 7.9146470e-11       
 +luc      = 1.0520902e-17       wuc      = -9.0127290e-18      puc      = -9.6208370e-24      
 +rdsw     = 1.7000000e02        prwb     = 0.00                prwg     = 0.00                
 +wr       = 1.0000000           u0       = 3.9805520e-02       lu0      = 7.2699450e-10       
 +wu0      = -4.2684650e-11      pu0      = 4.1479770e-16       a0       = 0.5005398           
 +la0      = 8.3029360e-08       wa0      = 1.7605426e-07       pa0      = -7.3659360e-14      
 +keta     = -2.7587207e-02      lketa    = 1.5818911e-09       wketa    = 3.2031690e-09       
 +pketa    = -7.3678430e-16      a1       = 0.00                a2       = 0.9900000           
 +ags      = 4.0857530e-02       lags     = -9.5944640e-09      wags     = -4.1264700e-09      
 +pags     = 1.8981756e-15       b0       = 0.00                b1       = 0.00                
 +voff     = -0.1264125          lvoff    = -4.0576950e-10      wvoff    = 3.6377740e-09       
 +pvoff    = -2.2207474e-15      nfactor  = 1.0000000           cit      = 2.2317801e-04       
 +lcit     = 1.2733804e-10       wcit     = 3.0939650e-11       pcit     = -1.4232223e-17      
 +cdsc     = 0.00                cdscb    = 0.00                cdscd    = 0.00                
 +eta0     = -3.1223928e-04      leta0    = 1.8963006e-10       weta0    = 2.4721704e-11       
 +peta0    = -1.1371991e-17      etab     = 1.4101875e-03       letab    = -6.9468620e-10      
 +wetab    = -3.0334849e-11      petab    = 1.3954016e-17       dsub     = 0.00                
 +pclm     = 0.9948969           lpclm    = 7.3373010e-08       wpclm    = 1.9327061e-07       
 +ppclm    = -1.2237712e-15      pdiblc1  = 1.0000000e-06       pdiblc2  = -4.0132200e-03      
 +lpdiblc2 = 4.5407440e-09       wpdiblc2 = -6.7937070e-10      ppdiblc2 = 3.9052370e-16       
 +pdiblcb  = 1.0000000e-02       drout    = 0.00                pscbe1   = 4.0000000e08        
 +pscbe2   = 1.0000000e-06       pvag     = 0.00                delta    = 1.0000000e-02       
 +alpha0   = 0.0                 alpha1   = 0.448150714         beta0    = 11.59263            
 +kt1      = -0.2249505          lkt1     = 1.6202869e-09       wkt1     = -4.6146780e-09      
 +pkt1     = 2.3961372e-15       kt2      = -2.8312566e-02      lkt2     = -8.2282570e-11      
 +wkt2     = -3.2149460e-09      pkt2     = 8.8320210e-16       at       = 2.0000000e04        
 +ute      = -1.2073984          lute     = -5.3326850e-08      wute     = -3.5053180e-07      
 +pute     = 4.3835750e-14       ua1      = 1.2240000e-09       ub1      = -4.6211320e-19      
 +lub1     = -6.5580890e-26      wub1     = -1.1442477e-24      pub1     = 1.6165291e-31       
 +uc1      = 6.0016960e-11       luc1     = -7.4166880e-18      wuc1     = -9.6584590e-17      
 +puc1     = 2.0250814e-23       kt1l     = 0.00                prt      = 0                   
 +cj       = cjn                 pb       = 0.6882682           mj       = 0.3595262
 +cjsw     = cjswn               pbsw     = 0.6882682           mjsw     = 0.2003879
 +cjswg    = cjswgn              pbswg    = 0.6882682           mjswg    = 0.43879
 +cgdo     = cgon                cgso     = cgon                tcj      = 0.001040287
 +tcjsw    = 0.000645489         tcjswg   = 0.000645489         tpb      = 0.001554306
 +tpbsw    = 0.001554306         tpbswg   = 0.001554306
 +js       = 3.50e-07            jsw      = 1.45e-12             n        = 1
 +xti      = 3                   capmod   = 3                   nqsmod   = 0
 +xpart    = 1                   cf       = 0                   tlev     = 1
 +tlevc    = 1                   calcacm  = 1                   sfvtflag = 0
 +dlc      = 3e-9                llc      = -0.039              noimod  = 2
 +noia     = 2.00e19		noib     = 1.2e04	       noic	= 2.5e-13
 +em       = 3.0e07		ef       = 0.874               )

 .model nch.13 nmos	(	lmin     = '1.000e-05-dxl'         lmax     = 20.001e-006              
 +wmin     = 2.2e-007                                           wmax     = '5.0000e-07-dxw'         
 +level    = 49                  tnom     = 25.0                version  = 3.24                 
 +tox      = 'toxn*gas'             toxm     = 'toxn'              xj       = 1.6000000e-07       
 +nch      = 3.9000000e17        lln      = -1                  lwn      = 1.0000000           
 +wln      = 1.0000000           wwn      = 1                   lint     = 1.0000000e-08       
 +ll       = 0.00                lw       = 0.00                lwl      = 0.00                
 +wint     = 3.0000000e-09       wl       = 0.00                ww       = 0.00                
 +wwl      = 0.00                mobmod   = 1                   binunit  = 2                   
 +xl       = '-0.02e-6+dxl'      xw       = '0.0+dxw'           dwg      = 0.00                
 +dwb      = 0.00                acm      = 12                  ldif     = 9.00e-08            
 +hdif     = 'hdifn'             rsh      = 'rshn'              rd       = 0                   
 +rs       = 0                                      
 +vth0     = '(0.4632908+dvthn)*gas'   wvth0    = '-1.5455745e-08+dwvthn'      pvth0    = '0+dpvthn'
 +k1       = 0.5220979           
 +wk1      = -1.4938487e-09      k2       = 1.6542569e-02       wk2      = -2.6871128e-09      
 +k3       = 0.00                dvt0     = 0.00                dvt1     = 0.00                
 +dvt2     = 0.00                dvt0w    = 0.00                dvt1w    = 0.00                
 +dvt2w    = 0.00                nlx      = 0.00                w0       = 0.00                
 +k3b      = 0.00                vsat     = '8.9999990e04+dvsatn'        
 +ua       = -5.8606080e-10      wua      = -1.5275344e-17      ub       = 1.7266676e-18       
 +wub      = 1.2900942e-25       uc       = 7.2522020e-11       wuc      = 2.9959555e-18       
 +rdsw     = 1.7000000e02        prwb     = 0.00                prwg     = 0.00                
 +wr       = 1.0000000           u0       = 3.5337420e-02       wu0      = 9.6827260e-10       
 +a0       = 0.3529820           wa0      = 5.2861860e-08       keta     = 2.0642520e-03       
 +wketa    = -2.9874625e-10      a1       = 0.00                a2       = 0.9900000           
 +ags      = 2.0000000e-02       b0       = 0.00                b1       = 0.00                
 +voff     = -0.1374522          wvoff    = -1.7276782e-09      nfactor  = 1.0000000           
 +cit      = -9.9999980e-05      cdsc     = 0.00                cdscb    = 0.00                
 +cdscd    = 0.00                eta0     = 5.0000000e-05       etab     = -5.0000000e-05      
 +dsub     = 0.00                pclm     = 0.7999999           pdiblc1  = 1.0000000e-06       
 +pdiblc2  = 6.9999990e-04       pdiblcb  = 1.0000000e-02       drout    = 0.00                
 +pscbe1   = 2.0000003e08        pscbe2   = 1.0000000e-06       pvag     = 0.00                
 +delta    = 1.0000000e-02       alpha0   = 0.0                 alpha1   = 0.448150714         
 +beta0    = 11.59263            kt1      = -0.2387670          wkt1     = 5.1286530e-09       
 +kt2      = -3.6205880e-02      wkt2     = 3.5322950e-09       at       = 2.0000000e04        
 +ute      = -1.5833832          wute     = 2.5547985e-08       ua1      = 1.2240000e-09       
 +ub1      = -1.4270478e-18      wub1     = -4.4329310e-26      uc1      = -6.3987300e-11      
 +wuc1     = -1.7086574e-17      kt1l     = 0.00                prt      = 0                   
 +cj       = cjn                 pb       = 0.6882682           mj       = 0.3595262
 +cjsw     = cjswn               pbsw     = 0.6882682           mjsw     = 0.2003879
 +cjswg    = cjswgn              pbswg    = 0.6882682           mjswg    = 0.43879
 +cgdo     = cgon                cgso     = cgon                tcj      = 0.001040287
 +tcjsw    = 0.000645489         tcjswg   = 0.000645489         tpb      = 0.001554306
 +tpbsw    = 0.001554306         tpbswg   = 0.001554306
 +js       = 3.50e-07            jsw      = 1.45e-12             n        = 1
 +xti      = 3                   capmod   = 3                   nqsmod   = 0
 +xpart    = 1                   cf       = 0                   tlev     = 1
 +tlevc    = 1                   calcacm  = 1                   sfvtflag = 0
 +dlc      = 3e-9                llc      = -0.039              noimod  = 2
 +noia     = 2.00e19		noib     = 1.2e04	       noic	= 2.5e-13
 +em       = 3.0e07		ef       = 0.874               )

 .model nch.14 nmos	(	lmin     = '1.200e-06-dxl'         lmax     = '1.000e-05-dxl'         
 +wmin     = 2.2e-007                                           wmax     = '5.0000e-07-dxw'         
 +level    = 49                  tnom     = 25.0                version  = 3.24                 
 +tox      = 'toxn*gas'             toxm     = 'toxn'              xj       = 1.6000000e-07       
 +nch      = 3.9000000e17        lln      = -1                  lwn      = 1.0000000           
 +wln      = 1.0000000           wwn      = 1                   lint     = 1.0000000e-08       
 +ll       = 0.00                lw       = 0.00                lwl      = 0.00                
 +wint     = 3.0000000e-09       wl       = 0.00                ww       = 0.00                
 +wwl      = 0.00                mobmod   = 1                   binunit  = 2                   
 +xl       = '-0.02e-6+dxl'      xw       = '0.0+dxw'           dwg      = 0.00                
 +dwb      = 0.00                acm      = 12                  ldif     = 9.00e-08            
 +hdif     = 'hdifn'             rsh      = 'rshn'              rd       = 0                   
 +rs       = 0                                      
 +vth0     = '(0.4576404+dvthn)*gas'   lvth0    = 5.6278240e-08       wvth0    = '-1.5215344e-08+dwvthn'      
 +pvth0    = '-2.3944025e-15+dpvthn'      k1       = 0.5284545           lk1      = -6.3312430e-08      
 +wk1      = -3.6920920e-09      pk1      = 2.1894499e-14       k2       = 1.4454342e-02       
 +lk2      = 2.0798732e-08       wk2      = -1.6093152e-09      pk2      = -1.0734859e-14      
 +k3       = 0.00                dvt0     = 0.00                dvt1     = 0.00                
 +dvt2     = 0.00                dvt0w    = 0.00                dvt1w    = 0.00                
 +dvt2w    = 0.00                nlx      = 0.00                w0       = 0.00                
 +k3b      = 0.00                vsat     = '9.0528880e04+dvsatn'        
 +lvsat    = -5.2677570e-03      wvsat    = -7.8579540e-05      pvsat    = 7.8265330e-10       
 +ua       = -5.7313250e-10      lua      = -1.2876533e-16      wua      = -1.6954039e-17      
 +pua      = 1.6719826e-23       ub       = 1.6479914e-18       lub      = 7.8361630e-25       
 +wub      = 1.5317406e-25       pub      = -2.4068014e-31      uc       = 6.5429030e-11       
 +luc      = 7.0646260e-17       wuc      = 5.4243400e-18       puc      = -2.4186704e-23      
 +rdsw     = 1.7000000e02        prwb     = 0.00                prwg     = 0.00                
 +wr       = 1.0000000           u0       = 3.4344000e-02       lu0      = 9.8945550e-09       
 +wu0      = 1.1059835e-09       pu0      = -1.3716021e-15      a0       = 0.3780467           
 +la0      = -2.4964379e-07      wa0      = 6.0319560e-08       pa0      = -7.4278730e-14      
 +keta     = 5.1141510e-03       lketa    = -3.0377027e-08      wketa    = -3.4669910e-10      
 +pketa    = 4.7761250e-16       a1       = 0.00                a2       = 0.9900000           
 +ags      = 2.0000000e-02       b0       = 0.00                b1       = 0.00                
 +voff     = -0.1354716          lvoff    = -1.9727372e-08      wvoff    = -1.9997353e-09      
 +pvoff    = 2.7096929e-15       nfactor  = 1.0000000           cit      = -1.2649217e-04      
 +lcit     = 2.6386249e-10       wcit     = -1.5715551e-13      pcit     = 1.5653096e-18       
 +cdsc     = 0.00                cdscb    = 0.00                cdscd    = 0.00                
 +eta0     = 5.0000000e-05       etab     = -5.0000000e-05      dsub     = 0.00                
 +pclm     = 0.7606163           lpclm    = 3.9226100e-07       wpclm    = -7.8579230e-09      
 +ppclm    = 7.8265150e-14       pdiblc1  = 1.0000000e-06       pdiblc2  = 3.9681830e-04       
 +lpdiblc2 = 3.0196909e-09       pdiblcb  = 1.0000000e-02       drout    = 0.00                
 +pscbe1   = 1.7363640e08        lpscbe1  = 2.6258182e02        pscbe2   = 1.0000000e-06       
 +pvag     = 0.00                delta    = 1.0000000e-02       alpha0   = 0.0                 
 +alpha1   = 0.448150714         beta0    = 11.59263            kt1      = -0.2407974          
 +lkt1     = 2.0222748e-08       wkt1     = 5.4980620e-09       pkt1     = -3.6793080e-15      
 +kt2      = -3.5896250e-02      lkt2     = -3.0839447e-09      wkt2     = 3.4732650e-09       
 +pkt2     = 5.8793360e-16       at       = 2.0000000e04        ute      = -1.5785241          
 +lute     = -4.8396960e-08      wute     = 2.7344081e-08       pute     = -1.7889165e-14      
 +ua1      = 1.2240000e-09       ub1      = -1.4513121e-18      lub1     = 2.4167225e-25       
 +wub1     = -4.6522010e-26      pub1     = 2.1839324e-32       uc1      = -6.9917860e-11      
 +luc1     = 5.9068390e-17       wuc1     = -1.7672629e-17      puc1     = 5.8371280e-24       
 +kt1l     = 0.00                prt      = 0                       
 +cj       = cjn                 pb       = 0.6882682           mj       = 0.3595262
 +cjsw     = cjswn               pbsw     = 0.6882682           mjsw     = 0.2003879
 +cjswg    = cjswgn              pbswg    = 0.6882682           mjswg    = 0.43879
 +cgdo     = cgon                cgso     = cgon                tcj      = 0.001040287
 +tcjsw    = 0.000645489         tcjswg   = 0.000645489         tpb      = 0.001554306
 +tpbsw    = 0.001554306         tpbswg   = 0.001554306
 +js       = 3.50e-07            jsw      = 1.45e-12             n        = 1
 +xti      = 3                   capmod   = 3                   nqsmod   = 0
 +xpart    = 1                   cf       = 0                   tlev     = 1
 +tlevc    = 1                   calcacm  = 1                   sfvtflag = 0
 +dlc      = 3e-9                llc      = -0.039              noimod  = 2
 +noia     = 2.00e19		noib     = 1.2e04	       noic	= 2.5e-13
 +em       = 3.0e07		ef       = 0.874               )

 .model nch.15 nmos	(	lmin     = '5.000e-07-dxl'         lmax     = '1.200e-06-dxl'         
 +wmin     = 2.2e-007                                           wmax     = '5.0000e-07-dxw'         
 +level    = 49                  tnom     = 25.0                version  = 3.24                 
 +tox      = 'toxn*gas'             toxm     = 'toxn'              xj       = 1.6000000e-07       
 +nch      = 3.9000000e17        lln      = -1                  lwn      = 1.0000000           
 +wln      = 1.0000000           wwn      = 1                   lint     = 1.0000000e-08       
 +ll       = 0.00                lw       = 0.00                lwl      = 0.00                
 +wint     = 3.0000000e-09       wl       = 0.00                ww       = 0.00                
 +wwl      = 0.00                mobmod   = 1                   binunit  = 2                   
 +xl       = '-0.02e-6+dxl'      xw       = '0.0+dxw'           dwg      = 0.00                
 +dwb      = 0.00                acm      = 12                  ldif     = 9.00e-08            
 +hdif     = 'hdifn'             rsh      = 'rshn'              rd       = 0                   
 +rs       = 0                                      
 +vth0     = '(0.4985188+dvthn)*gas'   lvth0    = 8.8592590e-09       wvth0    = '-1.7348324e-08+dwvthn'      
 +pvth0    = '7.9854650e-17+dpvthn'       k1       = 0.4140751           lk1      = 6.9367740e-08       
 +wk1      = 3.1738890e-08       pk1      = -1.9205430e-14      k2       = 5.9564120e-02       
 +lk2      = -3.1528607e-08      wk2      = -1.7501334e-08      pk2      = 7.6998830e-15       
 +k3       = 0.00                dvt0     = 0.00                dvt1     = 0.00                
 +dvt2     = 0.00                dvt0w    = 0.00                dvt1w    = 0.00                
 +dvt2w    = 0.00                nlx      = 0.00                w0       = 0.00                
[...]
         vth0=  -0.437329 V               nch=   3.9e+017 cm^-3   
         nsub=     6e+016 cm^-3           nlx=          0 meter   
       gamma1=          0 V^-1/2       gamma2=          0 V^-1/2  
           k1=   0.534458 V^1/2            k2=  0.0361579         
           k3=          0                 k3b=          0 V^-1    
           w0=          0 meter          dvt0=          0         
         dvt1=          0                dvt2=          0 V^-1    
        dvt0w=          0 meter^-1      dvt1w=          0 meter^-1
        dvt2w=          0 V^-1           dsub=          0         
         eta0=     5e-005                etab=    -5e-005 V^-1    
           u0=  0.0111214 m^2/V/sec         ua=8.45286e-010 m/V     
           ub= 7.084e-019 (m/V)^2          uc=-8.04939e-011 V^-1    
         vsat=     151307 m/sec            a1=          0 v^-1    
           a2=        0.4               delta=       0.01 V       
         rdsw=        530 ohm-um         prwg=          0 V^-1    
         prwb=          0 V^-1/2           wr=          1         
         pclm=   0.573864             pdiblc1=     1e-006         
      pdiblc2=0.000477273             pdiblcb=       0.01 V^-1    
       pscbe1=1.80398e+008 V/m          pscbe2=     5e-007 V/m     
        drout=          0                pvag=          0         
      nfactor=          1                cdsc=          0 f/m^2   
        cdscb=          0 f/V/m^2       cdscd=          0 f/V/m^2 
          cit=    -0.0001 f/m^2        alpha0=          0 m/V     
        beta0=    22.6783 V               dlc=     2e-009 meter   
          dwc=     5e-009 meter           clc=     1e-007 meter   
          cle=        0.6                cgso=  3.28e-010 f/m     
         cgdo=  3.28e-010 f/m            cgbo=8.46356e-011 f/m     
         cgsl=          0 f/m            cgdl=          0 f/m     
       ckappa=        0.6                  cf=          0 f/m     
         acde=          1 m/V            moin=         15 V^1/2   
         toxm=  4.08e-009 m            dtoxcv=          0 m       
          vfb (not used)                alpha1=    6.87305 1/V     
         ijth=        0.1 A              noff=          1         
       voffcv=          0                 tcj=  0.0009739 1/K     
        tcjsw=0.000413072 1/K          tcjswg=0.000413072 1/K     
          tpb= 0.00157203 V/K           tpbsw= 0.00157203 V/K     
       tpbswg= 0.00157203 V/K             llc=     -0.039         
          lwc=          0                lwlc=          0         
          wlc=          0                 wwc=          0         
         wwlc=          0                tnom=     298.15 K       
          kt1=  -0.230315 V              kt1l=          0         
          kt2= -0.0241558                 ute=   -0.84921         
          ua1= 1.224e-009 m/V             ub1=-1.40527e-018 (m/V)^2 
          uc1=-9.47004e-012 m/V^2            at=      10000 m/s     
          prt=          0         
          using Berkeley noise model       noiMod=          2         
         noia=   9.5e+018                noib=     100000         
         noic=   1.4e-012                  em=     3e+007         
           ef=      1.064                  af=          1         
           kf=          0              gdsnoi=-1.23457e-029         
          using Berkeley diodes          using ACM 
          acm=        12                 hdif=    2e-007 meter    
         ldif=    9e-008 meter             js=  2.5e-007 amp/m^2  
          jsw=  1.2e-012 amp/m            xti=         3          
           nj=         1                   cj=  0.001121 f/m^2    
           mj=    0.4476                   pb=  0.895226 V        
         cjsw=2.481e-010 f/m             mjsw=  0.368362          
          php (not used)                  pbsw=  0.895226 V        
       cjgate (not used)                 cjswg=4.221e-010 f/m      
        mjswg=  0.368362                pbswg=  0.895226 V        
          la0=6.87813e-008               lketa=-1.26627e-009         
        lvoff=-1.46836e-009               lvth0=-2.42799e-008         
          lk1=1.81844e-008                 lk2=-5.28064e-009         
          lu0=-1.30552e-009                 lua=-3.93561e-016         
          lub=4.21946e-025                 luc=1.88832e-017         
        lvsat= -0.0130028               lpclm=2.60057e-007         
     lpdiblc2=5.20114e-009             lpscbe1=    195.043         
         lkt1=-1.63009e-008                lkt2=-3.31284e-009         
         lute=9.6645e-008                lub1=5.44273e-026         
         luc1=1.8277e-017                 wa0=-5.45988e-008         
        wketa=7.08436e-009               wvoff=-5.87989e-010         
        wvth0=1.34068e-008                 wk1=1.18551e-008         
          wk2=-5.73278e-009                 wu0=-1.26108e-009         
          wua=1.72276e-016                 wub=-6.81325e-025         
          wuc=-8.04953e-017                wkt1=7.25675e-009         
         wkt2=1.24568e-009                wute=1.06441e-007         
         wub1=7.55269e-026                wuc1=2.77234e-017         
          pa0=6.69322e-014               pketa=-7.79217e-015         
        pvoff=-4.40328e-015               pvth0=-5.33647e-015         
          pk1=5.98624e-015                 pk2=-2.06331e-015         
          pu0=1.15432e-016                 pua=3.14656e-023         
          pub=2.80886e-031                 puc=9.8941e-024         
         pkt1=9.6667e-015                pkt2=2.40007e-015         
         pute=-4.3481e-015                pub1=-6.39762e-032         
         puc1=2.6179e-023         
 

 
      

 **diagnostic** dc convergence failure, 
 resetting dcon option to 1 and retrying

 **diagnostic** dc convergence successful
 you can increase the efficiency of the
 operating point calculation by setting dcon= 1
 in the .option statement
1****** HSPICE -- A-2008.03 32-BIT (Feb 26 2008) winnt ******                   
 ******  
 cmfb added to telescope and gain boosting                                      
  ******  operating point information      tnom=  25.000 temp=  25.000          
 ******  
 ***** operating point status is all       simulation time is     0.     
    node    =voltage      node    =voltage      node    =voltage

 +0:a       =   2.2272  0:b       =   2.2272  0:c       = 720.6934m
 +0:d       = 720.6934m 0:g3      =   1.5252  0:g4      =   1.5252 
 +0:g5      =   1.4352  0:g6      =   1.4352  0:ig4     = 501.3220m
 +0:ig5     = 501.3220m 0:ig6     =   1.7998  0:ig8     =   1.7998 
 +0:iss     = 561.1356m 0:iss11   = 599.5515m 0:iss22   = 599.5560m
 +0:vb1     =   1.7988  0:vb11    =   1.2500  0:vbg1    =   1.3000 
 +0:vbg4    =   1.3000  0:vbg5    =   1.0000  0:vbg8    =   1.0000 
 +0:vbig10  = 600.0000m 0:vbig6   =   1.6000  0:vbig7   = 600.0000m
 +0:vbig8   =   1.6000  0:vbig9   = 600.0000m 0:vbtail  = 600.0000m
 +0:vdd     =   2.5000  0:vinn    =   1.2500  0:vinp    =   1.2500 
 +0:voutn   =   1.2478  0:voutp   =   1.2478  0:y       =   1.3227 
 +0:z       =   1.6162 


 ****  voltage sources

 subckt                                                                    
 element  0:vdd      0:vinp     0:vinn     0:vbtail   0:vb11     0:vbg1    
  volts      2.5000     1.2500     1.2500   600.0000m    1.2500     1.3000 
  current -260.0685u    0.         0.         0.         0.         0.     
  power    650.1711u    0.         0.         0.         0.         0.     

 subckt                                                                    
 element  0:vbg4     0:vbg5     0:vbig6    0:vbig7    0:vbg8     0:vbig8   
  volts      1.3000     1.0000     1.6000   600.0000m    1.0000     1.6000 
  current    0.         0.         0.         0.         0.         0.     
  power      0.         0.         0.         0.         0.         0.     

 subckt                        
 element  0:vbig9    0:vbig10  
  volts    600.0000m  600.0000m
  current    0.         0.     
  power      0.         0.     

     total voltage source power dissipation=  650.1711u       watts



 ***** current sources

 subckt                                                                    
 element  0:iss11    0:iss22    0:ig1      0:ig2      0:ig3      0:ig4     
  volts    599.5515m  599.5560m  883.7964m  974.7800m  974.7801m  501.3220m
  current   10.0000u   10.0000u   10.0000u    5.0000u    5.0000u   10.0000u
  power     -5.9955u   -5.9956u   -8.8380u   -4.8739u   -4.8739u   -5.0132u

 subckt             
 element  0:ig5     
  volts    501.3220m
  current   10.0000u
  power     -5.0132u


     total current source power dissipation= -40.6033u       watts


 **** mosfets


 subckt                                                                    
 element  0:miss     0:m7       0:m8       0:m5       0:m6       0:m3      
 model    0:nch.2    0:pch.3    0:pch.3    0:pch.3    0:pch.3    0:nch.3   
 region     Saturati   Saturati   Saturati   Saturati   Saturati   Saturati
  id       200.0366u -100.0183u -100.0183u -100.0183u -100.0183u  100.0183u
  ibs     -3.234e-20  1.416e-20  1.416e-20   83.4580a   83.4580a  -39.0080a
  ibd     -242.9291a   92.2968a   92.2968a  117.8728a  117.8564a  -39.1039a
  vgs      600.0000m -701.2249m -701.2249m -791.9344m -791.9345m  804.5266m
  vds      561.1356m -272.8283m -272.8283m -979.3478m -979.3364m  527.1306m
  vbs        0.         0.         0.       272.8283m  272.8283m -720.6934m
  vth      461.2702m -461.9724m -461.9724m -545.0707m -545.0707m  660.2985m
  vdsat    180.0665m -223.3410m -223.3410m -234.8364m -234.8365m  177.9116m
  vod      138.7298m -239.2525m -239.2525m -246.8637m -246.8638m  144.2281m
  beta      15.2417m    3.7272m    3.7272m    3.2259m    3.2259m    7.2711m
  gam eff  501.0391m  508.6306m  508.6306m  501.1545m  501.1545m  501.9902m
  gm         2.1583m  698.7906u  698.7906u  696.4280u  696.4279u    1.0224m
  gds        6.2347u   39.2214u   39.2214u    5.0046u    5.0046u    7.8563u
  gmb      621.3764u  232.4213u  232.4213u  208.5490u  208.5490u  218.3956u
  cdtot     89.6787f   53.5483f   53.5483f   37.0372f   37.0373f   12.9007f
  cgtot    916.7596f  182.6542f  182.6542f  163.0665f  163.0665f   57.5703f
  cstot      1.0991p  224.6872f  224.6872f  196.0760f  196.0760f   65.2554f
  cbtot    451.1981f  127.8846f  127.8846f   98.9339f   98.9339f   29.7926f
  cgs      791.6917f  161.7083f  161.7083f  146.6191f  146.6191f   49.7242f
  cgd       29.1816f   13.8288f   13.8288f   10.8109f   10.8109f    4.5791f



 subckt                                                                    
 element  0:m4       0:m1       0:m2       0:m11      0:m22      0:m33     
 model    0:nch.3    0:nch.3    0:nch.3    0:nch.7    0:nch.7    0:nch.7   
 region     Saturati   Saturati   Saturati   Saturati   Saturati   Saturati
  id       100.0183u  100.0183u  100.0183u    4.9309u    5.0691u    4.9314u
  ibs      -39.0080a -125.0400a -125.0400a   -9.5808a   -9.9760a   -9.5808a
  ibd      -39.1040a -125.0444a -125.0444a   -6.8640n  -79.1103p   -6.8645n
  vgs      804.5265m  688.8644m  688.8644m  648.2725m  650.4485m  648.2793m
  vds      527.1420m  159.5578m  159.5578m    1.9004     1.1992     1.9004 
  vbs     -720.6934m -561.1356m -561.1356m -599.5515m -599.5515m -599.5560m
  vth      660.2984m  625.0393m  625.0393m  639.0004m  639.1055m  639.0014m
  vdsat    177.9115m  120.7551m  120.7551m   81.7242m   82.7065m   81.7270m
  vod      144.2280m   63.8251m   63.8251m    9.2720m   11.3431m    9.2779m
  beta       7.2711m   21.1276m   21.1276m    2.3146m    2.4284m    2.3146m
  gam eff  501.9902m  505.2071m  505.2071m  532.5359m  530.2192m  532.5359m
  gm         1.0224m    1.4415m    1.4415m   89.2572u   92.3531u   89.2648u
  gds        7.8561u   75.9181u   75.9181u  439.2830n  485.3693n  439.3187n
  gmb      218.3957u  324.8890u  324.8890u   19.6287u   20.3209u   19.6303u
  cdtot     12.9007f   47.9676f   47.9676f    2.6596f    2.9266f    2.6596f
  cgtot     57.5703f  190.8729f  190.8729f    6.9466f    7.3638f    6.9468f
  cstot     65.2554f  211.6971f  211.6971f    7.5222f    7.9993f    7.5226f
  cbtot     29.7926f  110.2656f  110.2656f    5.8685f    6.2763f    5.8685f
  cgs       49.7242f  156.4040f  156.4040f    4.7196f    5.0594f    4.7199f
  cgd        4.5791f   16.4782f   16.4782f    1.0116f    1.0591f    1.0116f



 subckt                                                                    
 element  0:m44      0:m55      0:mg1      0:mg2      0:mg3      0:mg4     
 model    0:nch.7    0:pch.8    0:nch.11   0:pch.7    0:pch.7    0:nch.11  
 region     Saturati   Saturati   Saturati   Saturati   Saturati   Saturati
  id         5.0686u  -10.1379u    5.0000u   -5.0000u   -5.0000u    5.0000u
  ibs       -9.9760a  1.770e-21   -2.8624a    6.0850a    6.0850a   -2.8624a
  ibd      -79.1007p    4.9194a -856.7099f  670.2511a  670.2511a -856.7085f
  vgs      650.4440m -701.2249m  798.6780m -895.5102m -895.5102m  798.6780m
  vds        1.1992  -701.2249m    1.0239    -1.1149    -1.1149     1.0239 
  vbs     -599.5560m    0.      -501.3220m  883.7964m  883.7964m -501.3220m
  vth      639.1065m -477.5666m  599.9781m -709.3429m -709.3429m  599.9781m
  vdsat     82.7039m -208.2846m  229.9676m -194.6563m -194.6563m  229.9676m
  vod       11.3375m -223.6583m  198.6999m -186.1673m -186.1673m  198.6999m
  beta       2.4284m  380.4813u  206.9413u  246.4763u  246.4763u  206.9413u
  gam eff  530.2192m  615.4225m  502.0664m  565.0608m  565.0608m  502.0664m
  gm        92.3455u   75.9270u   40.9205u   43.9268u   43.9268u   40.9205u
  gds      485.3313n    1.4318u  171.7315n  362.7153n  362.7153n  171.7315n
  gmb       20.3192u   25.7906u    9.3056u   11.0447u   11.0447u    9.3056u
  cdtot      2.9266f    2.0545f  682.4697a    2.2332f    2.2332f  682.4697a
  cgtot      7.3635f    3.8587f    3.5894f    7.4976f    7.4976f    3.5894f
  cstot      7.9989f    5.4750f    4.2173f    8.8798f    8.8798f    4.2173f
  cbtot      6.2762f    4.4372f    1.9660f    4.9832f    4.9832f    1.9660f
  cgs        5.0591f    3.1603f    3.1076f    6.5218f    6.5218f    3.1076f
  cgd        1.0591f  505.9465a  202.8307a  666.8507a  666.8507a  202.8307a



 subckt                                                                    
 element  0:mig6     0:mig7     0:mig8     0:mig9     0:mig10    0:mg5     
 model    0:pch.7    0:nch.6    0:pch.7    0:nch.6    0:nch.7    0:nch.7   
 region     Saturati   Saturati   Saturati   Saturati   Saturati   Saturati
  id       -10.0090u    5.0081u  -10.0090u    5.0081u   10.0009u    5.0006u
  ibs      1.698e-21 -9.149e-22  1.698e-21 -9.149e-22 -1.867e-21   -4.9296a
  ibd        5.5442a -262.3851p    5.5442a -262.3849p -247.8352p   -4.9308a
  vgs     -900.0000m  600.0000m -900.0000m  600.0000m  600.0000m  904.5057m
  vds     -700.2368m    1.4352  -700.2368m    1.4352     1.3227   477.0972m
  vbs        0.         0.         0.         0.         0.        -1.3227 
  vth     -454.7895m  450.7447m -454.7895m  450.7447m  483.5679m  782.3574m
  vdsat   -378.6890m  187.0995m -378.6890m  187.0995m  159.5191m  170.8401m
  vod     -445.2105m  149.2553m -445.2105m  149.2553m  116.4321m  122.1483m
  beta     115.5040u  341.8745u  115.5040u  341.8745u  949.7551u  444.1828u
  gam eff  518.3623m  508.7453m  518.3623m  508.7453m  526.3699m  543.1796m
  gm        39.7155u   51.9808u   39.7155u   51.9808u  116.2885u   57.5112u
  gds      477.3904n   76.2449n  477.3904n   76.2449n  370.4328n  361.0221n
  gmb       13.5517u   15.0375u   13.5517u   15.0375u   33.4056u   10.6720u
  cdtot      2.4067f    2.9504f    2.4067f    2.9504f    2.5383f    1.3329f
  cgtot     12.7724f   48.7185f   12.7724f   48.7185f   14.6451f    7.6395f
  cstot     15.5440f   58.2873f   15.5440f   58.2873f   17.8297f    8.5120f
  cbtot      7.6126f   22.2527f    7.6126f   22.2527f    8.8662f    3.4549f
  cgs       11.6566f   42.3177f   11.6566f   42.3177f   12.2152f    6.6405f
  cgd      608.1137a    1.0258f  608.1137a    1.0258f  868.4357a  455.9380a



 subckt                                   
 element  0:mg6      0:mg7      0:mg8     
 model    0:pch.6    0:nch.7    0:pch.6   
 region     Saturati   Saturati   Saturati
  id        -5.0084u    5.0006u   -5.0084u
  ibs       22.2350a   -4.9296a   22.2350a
  ibd       22.2473a   -4.9308a   22.2473a
  vgs     -799.7632m  904.5057m -799.7632m
  vds     -364.5259m  477.0972m -364.5260m
  vbs      700.2368m   -1.3227   700.2368m
  vth     -650.9203m  782.3574m -650.9203m
  vdsat   -164.3942m  170.8401m -164.3942m
  vod     -148.8429m  122.1483m -148.8429m
  beta     396.3127u  444.1828u  396.3127u
  gam eff  470.7329m  543.1796m  470.7329m
  gm        52.7636u   57.5112u   52.7636u
  gds      330.6863n  361.0221n  330.6862n
  gmb       13.7186u   10.6720u   13.7186u
  cdtot     10.2187f    1.3329f   10.2187f
  cgtot     75.6689f    7.6395f   75.6689f
  cstot     85.0935f    8.5120f   85.0935f
  cbtot     32.8681f    3.4549f   32.8681f
  cgs       69.6635f    6.6405f   69.6635f
  cgd        2.9203f  455.9380a    2.9203f



 ******  
 cmfb added to telescope and gain boosting                                      
  ******  ac analysis                      tnom=  25.000 temp=  25.000          
 ******  
x

        freq    param      
               db(v(voutp))
    2.00000      17.2946   
    3.16979      17.2931   
    5.02377      17.2904   
    7.96214      17.2870   
   12.61915      17.2840   
   20.00000      17.2821   
   31.69786      17.2812   
   50.23773      17.2808   
   79.62143      17.2806   
  126.19147      17.2805   
  200.00000      17.2804   
  316.97864      17.2804   
  502.37729      17.2803   
  796.21434      17.2803   
    1.26191k     17.2803   
    2.00000k     17.2802   
    3.16979k     17.2801   
    5.02377k     17.2798   
    7.96214k     17.2791   
   12.61915k     17.2774   
   20.00000k     17.2730   
   31.69786k     17.2619   
   50.23773k     17.2341   
   79.62143k     17.1652   
  126.19147k     16.9967   
  200.00000k     16.6004   
  316.97864k     15.7404   
  502.37729k     14.1245   
  796.21434k     11.6244   
    1.26191x      8.4191   
    2.00000x      4.8225   
    3.16979x      1.0966   
    5.02377x     -2.5604   
    7.96214x     -6.0090   
   12.61915x     -9.4596   
   20.00000x    -14.0646   
   31.69786x    -20.5633   
   50.23773x    -27.7875   
   79.62143x    -34.6822   
  126.19147x    -40.6846   
  200.00000x    -45.1748   
  316.97864x    -47.5611   
  502.37729x    -48.1643   
  796.21434x    -48.1250   
y

          ***** job concluded
1****** HSPICE -- A-2008.03 32-BIT (Feb 26 2008) winnt ******                   
 ******  
 cmfb added to telescope and gain boosting                                      
  ******  job statistics summary           tnom=  25.000 temp=  25.000          
 ******  

           total memory used        535 kbytes

  # nodes =      89 # elements=      50
  # diodes=       0 # bjts    =       0 # jfets   =       0 # mosfets =      27
  # va device =       0

    analysis           time    # points   tot. iter  conv.iter

    op point           0.08           1         266
    ac analysis        0.26          44          44
    readin             0.14
    errchk             0.08
    setup              0.03
    output             0.00
           total cpu time          0.70 seconds
           total elapsed time         1 seconds
               job started at  17:13:21 08/23/2017
               job ended   at  17:13:21 08/23/2017


 Init: hspice initialization file: C:\synopsys\Hspice_A-2008.03\hspice.ini
